
//   run_parallel_rhoCfdemSolverPimple_ErgunTestMPI_CFDDEM   //

/home/eadaymo/CFDEM/eadaymo-KIT-PUBLIC-5.x/run/tutorials/rhoCfdemSolverPimple/sqBendLiq/CFD

/*---------------------------------------------------------------------------*\
| =========                 |                                                 |
| \\      /  F ield         | OpenFOAM: The Open Source CFD Toolbox           |
|  \\    /   O peration     | Version:  5.x                                   |
|   \\  /    A nd           | Web:      www.OpenFOAM.org                      |
|    \\/     M anipulation  |                                                 |
\*---------------------------------------------------------------------------*/
Build  : 5.x-7f7d351b741b
Exec   : rhoCfdemSolverPimple -parallel
Date   : Oct 08 2018
Time   : 20:30:45
Host   : "langmuir"
PID    : 27779
I/O    : uncollated
Case   : /home/eadaymo/CFDEM/eadaymo-KIT-PUBLIC-5.x/run/tutorials/rhoCfdemSolverPimple/sqBendLiq/CFD
nProcs : 4
Slaves : 
3
(
"langmuir.27780"
"langmuir.27781"
"langmuir.27782"
)

Pstream initialized with:
    floatTransfer      : 0
    nProcsSimpleSum    : 0
    commsType          : nonBlocking
    polling iterations : 0
sigFpe : Enabling floating point exception trapping (FOAM_SIGFPE).
fileModificationChecking : Monitoring run-time modified files using timeStampMaster (fileModificationSkew 10)
allowSystemOperations : Allowing user-supplied system call operations

// * * * * * * * * * * * * * * * * * * * * * * * * * * * * * * * * * * * * * //
Create time

Create mesh for time = 0


PIMPLE: Operating solver in PISO mode

Reading thermophysical properties

Selecting thermodynamics package 
{
    type            heRhoThermo;
    mixture         pureMixture;
    properties      liquid;
    energy          sensibleInternalEnergy;
}

Reading physical velocity field U
Note: only if voidfraction at boundary is 1, U is superficial velocity!!!


Reading momentum exchange field Ksl


Reading voidfraction field voidfraction = (Vgas/Vparticle)

Reading particle velocity field Us

Reading/calculating face flux field phi

Generating interstitial face flux field phiByVoidfraction

Creating turbulence model

Selecting turbulence model type RAS
Selecting RAS turbulence model kEpsilon
RAS
{
    RASModel        kEpsilon;
    turbulence      on;
    printCoeffs     on;
    Cmu             0.09;
    C1              1.44;
    C2              1.92;
    C3              0;
    sigmak          1;
    sigmaEps        1.3;
}

Creating field DpDt

Creating field kinetic energy K

No MRF models present

pressureControl
    pMax 150000
    pMin 10000

No finite volume options present


Reading g
Selecting locateModel engine
Selecting dataExchangeModel twoWayMPI
Starting up LIGGGHTS for first time execution
Executing input script '../DEM/in.liggghts_run'
LIGGGHTS (Version LIGGGHTS-PUBLIC 3.8.0, compiled 2018-05-12-08:38:37 by eadaymo, git commit unknown)
log             ../DEM/log.liggghts
thermo_log      ../DEM/post/thermo.txt

atom_style      granular
atom_modify     map array
communicate     single vel yes

boundary        m m m
newton          off

units           si
processors      2 2 1

# read the restart file
read_restart    ../DEM/post/restart/liggghts.restart
Reading restart file ...
WARNING: Restart file version does not match LIGGGHTS version (../read_restart.cpp:507)
   --> restart file = Version LIGGGHTS-PUBLIC 3.8.0, compiled 2018-05-12-08:33:06 by eadaymo, git commit unknown
   --> LIGGGHTS = Version LIGGGHTS-PUBLIC 3.8.0, compiled 2018-05-12-08:38:37 by eadaymo, git commit unknown
version 3 8
version 3 8
version 3 8
version 3 8
WARNING: Restart file used different 3d processor grid (../read_restart.cpp:587)
  orthogonal box = (-0.015 -0.015 -0.001) to (0.015 0.015 0.0554)
  2 by 2 by 1 MPI processor grid
  10000 atoms

neighbor        0.0005 bin
neigh_modify    delay 0

# Material properties required for granular pair styles

fix         m1 all property/global youngsModulus peratomtype 5.e6
fix         m2 all property/global poissonsRatio peratomtype 0.45
fix         m3 all property/global coefficientRestitution peratomtypepair 1 0.3
fix         m4 all property/global coefficientFriction peratomtypepair 1 0.5

# pair style
pair_style  gran model hertz tangential history # Hertzian without cohesion
pair_coeff  * *

# timestep, gravity
timestep    0.00001
fix         gravi all gravity 9.81 vector 0.0 0.0 -1.0

# walls
fix         zwalls1 all wall/gran model hertz tangential history primitive type 1  zplane 0.0
Resetting global state of Fix history_zwalls1 Style property/atom from restart file info
Resetting per-atom state of Fix history_zwalls1 Style property/atom from restart file info
fix         zwalls2 all wall/gran model hertz tangential history primitive type 1  zplane 0.0553
Resetting global state of Fix history_zwalls2 Style property/atom from restart file info
Resetting per-atom state of Fix history_zwalls2 Style property/atom from restart file info
fix         cylwalls all wall/gran model hertz tangential history primitive type 1 zcylinder 0.01385 0. 0.
Resetting global state of Fix history_cylwalls Style property/atom from restart file info
Resetting per-atom state of Fix history_cylwalls Style property/atom from restart file info

# cfd coupling
fix         cfd all couple/cfd couple_every 100 mpi
couple_every as specified in LIGGGHTS is overriden by calling external program (../fix_cfd_coupling.cpp:114)
fix         cfd2 all couple/cfd/force/implicit
#fix         cfd2 all couple/cfd/force/accumulator RongDrag 10 1.5e-3
#fix         cfd2 all couple/cfd/force/implicit/accumulated #CrankNicolson 0.5

# apply nve integration to all particles that are inserted as single particles
fix         integr all nve/sphere

# center of mass
compute     centerOfMass all com

# compute explicit dragforce
compute     explDrag all reduce update_on_run_end yes sum f_dragforce[1] f_dragforce[2] f_dragforce[3]

# sum of explicit and implicit drag force given from CFD to DEM
variable    totalDragX equal f_cfd2[1]
variable    totalDragY equal f_cfd2[2]
variable    totalDragZ equal f_cfd2[3]

# explicit drag force given from CFD to DEM
variable    explicitDragX equal c_explDrag[1]
variable    explicitDragY equal c_explDrag[2]
variable    explicitDragZ equal c_explDrag[3]

variable    time equal step*dt
fix         extra all print 10 "${time} ${explicitDragX} ${explicitDragY} ${explicitDragZ} ${totalDragX} ${totalDragY} ${totalDragZ}" file ../DEM/post/forces.txt title "# time expDrag(X Y Z) totDrag(X Y Z)"

# screen output
compute         rke all erotate/sphere
thermo_style    custom step atoms ke c_rke vol c_centerOfMass[3] c_explDrag[1] c_explDrag[2] c_explDrag[3] f_cfd2[1] f_cfd2[2] f_cfd2[3]
thermo          10
thermo_modify   lost ignore norm no
compute_modify  thermo_temp dynamic yes
WARNING: Changing thermo_temp compute object. This object is deprecated and will be removed in the future. (../compute.cpp:161)

dump            dmp all custom 5000 ../DEM/post/dump*.liggghts_run id type x y z vx vy vz fx fy fz f_dragforce[1] f_dragforce[2] f_dragforce[3] radius
#dump            dmp all custom/vtk 5000 ../DEM/post/dump_liggghts_run.*.vtk id type x y z vx vy vz fx fy fz f_dragforce[1] f_dragforce[2] f_dragforce[3] radius

run             0
Resetting global state of Fix contacthistory Style contacthistory from restart file info
Resetting per-atom state of Fix contacthistory Style contacthistory from restart file info
Setting up run at Mon Oct  8 20:30:45 2018

Memory usage per processor = 11.7592 Mbytes
    Step    Atoms         KinEng            rke         Volume       centerOf       explDrag       explDrag       explDrag        cfd2[1]        cfd2[2]        cfd2[3] 
   10000    10000  7.4569765e-08  6.0588027e-08      5.076e-05   0.0075796412              0              0              0              0              0              0 
Loop time of 3.12348e-06 on 4 procs for 0 steps with 10000 atoms, finish time Mon Oct  8 20:30:45 2018


Pair  time (%) = 0 (0)
Neigh time (%) = 0 (0)
Comm  time (%) = 0 (0)
Outpt time (%) = 0 (0)
Other time (%) = 3.12348e-06 (100)

Nlocal:    2500 ave 2510 max 2494 min
Histogram: 1 1 0 1 0 0 0 0 0 1
Nghost:    736.75 ave 741 max 727 min
Histogram: 1 0 0 0 0 0 0 0 1 2
Neighs:    17459 ave 17527 max 17428 min
Histogram: 2 0 1 0 0 0 0 0 0 1

Total # of neighbors = 69836
Ave neighs/atom = 6.9836
Neighbor list builds = 0
Dangerous builds = 0
--> FOAM Warning : You are using sub-time-steps (i.e. CFD TS < coupling time)! Check your settings properly.
Selecting IOModel basicIO
Selecting probeModel off
Selecting voidFractionModel divided
Selecting averagingModel dense
Selecting clockModel off
start clock measurement at t >2
Selecting smoothingModel off
Selecting meshMotionModel noMeshMotion

CFDEMcoupling version: cfdem-3.8.1
, compatible to LIGGGHTS version: 3.8.0
, compatible to OF version and build: 5.x-commit-538044ac05c4672b37c7df607dca1116fa88df88

You are currently using:
OF version: 5.x
OF build: 5.x-7f7d351b741b
CFDEM build: 

cg is set to: 1
LIGGGHTS hosts 1 atom types.
If BC are important, please provide volScalarFields -imp/expParticleForces-
ignoring ddt(voidfraction)
Selecting momCoupleModel implicitCouple

implicit momentum exchange field calculate if alphaP larger than : 1
Selecting forceModel gradPForce
 Selecting forceSubModel ImEx
 reading switches:
  looking for treatForceExplicit ...  not found in dict, using default. treatForceExplicit = true
  looking for verbose ...  not found in dict, using default. verbose = false
  looking for interpolation ...  found in dict. interpolation = true

Selecting forceModel viscForce
 Selecting forceSubModel ImEx
 reading switches:
  looking for treatForceExplicit ...  not found in dict, using default. treatForceExplicit = true
  looking for verbose ...  not found in dict, using default. verbose = false
  looking for interpolation ...  found in dict. interpolation = true
  looking for scalarViscosity ...  not found in dict, using default. scalarViscosity = false

Selecting forceModel KochHillDrag
 Selecting forceSubModel ImEx
 reading switches:
  looking for treatForceExplicit ...  not found in dict, using default. treatForceExplicit = false
  looking for implForceDEM ...  found in dict. implForceDEM = true
  looking for verbose ...  not found in dict, using default. verbose = false
  looking for interpolation ...  found in dict. interpolation = true
  looking for implForceDEMaccumulated ...  not found in dict, using default. implForceDEMaccumulated = false
  looking for scalarViscosity ...  not found in dict, using default. scalarViscosity = false

Selecting forceModel fieldStore
Creating field stored_U
Selecting liggghtsCommandModel runLiggghts ,provide dicts, numbered from 0 to n
Selecting liggghtsCommandModel writeLiggghts ,provide dicts, numbered from 0 to n
writeLiggghts: A restart file writeName_write_restart ../DEM/post/restart/liggghts.restartCFDEM is written.
solving volume averaged Navier Stokes equations of type A
check if Archimedes lift is necessary (depends on pressure formulation)


Starting time loop

Time = 0.002

Courant Number mean: 0.00282882 max: 0.8
diagonal:  Solving for rho, Initial residual = 0, Final residual = 0, No Iterations 0
PIMPLE: iteration 1
DILUPBiCGStab:  Solving for Ux, Initial residual = 1, Final residual = 4.10259e-08, No Iterations 1
DILUPBiCGStab:  Solving for Uy, Initial residual = 1, Final residual = 4.42943e-08, No Iterations 1
DILUPBiCGStab:  Solving for Uz, Initial residual = 1, Final residual = 4.42936e-08, No Iterations 1
DILUPBiCGStab:  Solving for e, Initial residual = 0.999998, Final residual = 9.03358e-11, No Iterations 1
GAMG:  Solving for p, Initial residual = 1, Final residual = 9.5357e-08, No Iterations 22
diagonal:  Solving for rho, Initial residual = 0, Final residual = 0, No Iterations 0
time step continuity errors : sum local = 5.39495e-07, global = -1.03661e-07, cumulative = -1.03661e-07
rho max/min : 994.511 980.57
pressureControl: p max 796838
GAMG:  Solving for p, Initial residual = 0.0253261, Final residual = 8.3307e-08, No Iterations 17
diagonal:  Solving for rho, Initial residual = 0, Final residual = 0, No Iterations 0
time step continuity errors : sum local = 3.72028e-05, global = -8.12422e-06, cumulative = -8.22788e-06
rho max/min : 994.511 980.57
pressureControl: p max 794484
GAMG:  Solving for p, Initial residual = 0.0252812, Final residual = 7.91876e-08, No Iterations 17
diagonal:  Solving for rho, Initial residual = 0, Final residual = 0, No Iterations 0
time step continuity errors : sum local = 3.53576e-05, global = -7.40114e-06, cumulative = -1.5629e-05
rho max/min : 994.511 980.57
pressureControl: p max 794484
ExecutionTime = 0.65 s  ClockTime = 1 s

Time = 0.004

Courant Number mean: 1.613 max: 5.04844
diagonal:  Solving for rho, Initial residual = 0, Final residual = 0, No Iterations 0
PIMPLE: iteration 1
DILUPBiCGStab:  Solving for Ux, Initial residual = 0.0798723, Final residual = 1.36836e-08, No Iterations 2
DILUPBiCGStab:  Solving for Uy, Initial residual = 0.0292978, Final residual = 5.82298e-09, No Iterations 3
DILUPBiCGStab:  Solving for Uz, Initial residual = 0.395803, Final residual = 2.87227e-08, No Iterations 3
DILUPBiCGStab:  Solving for e, Initial residual = 0.289577, Final residual = 4.73321e-09, No Iterations 3
GAMG:  Solving for p, Initial residual = 0.0749451, Final residual = 7.88271e-08, No Iterations 14
diagonal:  Solving for rho, Initial residual = 0, Final residual = 0, No Iterations 0
time step continuity errors : sum local = 1.42404e-05, global = 2.75221e-06, cumulative = -1.28768e-05
rho max/min : 994.511 980.57
GAMG:  Solving for p, Initial residual = 0.034618, Final residual = 5.03846e-08, No Iterations 14
diagonal:  Solving for rho, Initial residual = 0, Final residual = 0, No Iterations 0
time step continuity errors : sum local = 1.24499e-05, global = -2.64696e-06, cumulative = -1.55238e-05
rho max/min : 994.511 980.57
GAMG:  Solving for p, Initial residual = 0.116783, Final residual = 6.90803e-08, No Iterations 14
diagonal:  Solving for rho, Initial residual = 0, Final residual = 0, No Iterations 0
time step continuity errors : sum local = 6.45691e-07, global = -1.86306e-07, cumulative = -1.57101e-05
rho max/min : 994.511 980.57
ExecutionTime = 0.97 s  ClockTime = 1 s

Time = 0.006

Courant Number mean: 1.61229 max: 4.82686
diagonal:  Solving for rho, Initial residual = 0, Final residual = 0, No Iterations 0
PIMPLE: iteration 1
DILUPBiCGStab:  Solving for Ux, Initial residual = 0.00332663, Final residual = 1.93559e-08, No Iterations 2
DILUPBiCGStab:  Solving for Uy, Initial residual = 0.00402599, Final residual = 5.01272e-09, No Iterations 2
DILUPBiCGStab:  Solving for Uz, Initial residual = 0.302372, Final residual = 2.41813e-08, No Iterations 3
DILUPBiCGStab:  Solving for e, Initial residual = 0.135561, Final residual = 4.59494e-09, No Iterations 3
GAMG:  Solving for p, Initial residual = 0.243647, Final residual = 4.35116e-08, No Iterations 15
diagonal:  Solving for rho, Initial residual = 0, Final residual = 0, No Iterations 0
time step continuity errors : sum local = 3.89364e-07, global = -5.93119e-08, cumulative = -1.57694e-05
rho max/min : 994.512 980.57
GAMG:  Solving for p, Initial residual = 0.0852304, Final residual = 9.7226e-08, No Iterations 13
diagonal:  Solving for rho, Initial residual = 0, Final residual = 0, No Iterations 0
time step continuity errors : sum local = 8.7369e-07, global = -4.04373e-08, cumulative = -1.58098e-05
rho max/min : 994.512 980.57
GAMG:  Solving for p, Initial residual = 0.0256175, Final residual = 6.50139e-08, No Iterations 10
diagonal:  Solving for rho, Initial residual = 0, Final residual = 0, No Iterations 0
time step continuity errors : sum local = 5.33231e-07, global = -7.6593e-08, cumulative = -1.58864e-05
rho max/min : 994.512 980.57
ExecutionTime = 1.28 s  ClockTime = 1 s

Time = 0.008

Courant Number mean: 1.61227 max: 4.74403
diagonal:  Solving for rho, Initial residual = 0, Final residual = 0, No Iterations 0
PIMPLE: iteration 1
DILUPBiCGStab:  Solving for Ux, Initial residual = 0.00168038, Final residual = 8.15142e-08, No Iterations 2
DILUPBiCGStab:  Solving for Uy, Initial residual = 0.00229711, Final residual = 4.51664e-09, No Iterations 2
DILUPBiCGStab:  Solving for Uz, Initial residual = 0.219789, Final residual = 1.05469e-08, No Iterations 3
DILUPBiCGStab:  Solving for e, Initial residual = 0.0936975, Final residual = 3.39435e-09, No Iterations 3
GAMG:  Solving for p, Initial residual = 0.102816, Final residual = 5.77776e-08, No Iterations 13
diagonal:  Solving for rho, Initial residual = 0, Final residual = 0, No Iterations 0
time step continuity errors : sum local = 4.9179e-07, global = -1.77828e-08, cumulative = -1.59042e-05
rho max/min : 994.512 980.57
GAMG:  Solving for p, Initial residual = 0.0192643, Final residual = 5.93432e-08, No Iterations 12
diagonal:  Solving for rho, Initial residual = 0, Final residual = 0, No Iterations 0
time step continuity errors : sum local = 5.3253e-07, global = 5.57056e-08, cumulative = -1.58485e-05
rho max/min : 994.512 980.57
GAMG:  Solving for p, Initial residual = 0.00622659, Final residual = 6.02338e-08, No Iterations 8
diagonal:  Solving for rho, Initial residual = 0, Final residual = 0, No Iterations 0
time step continuity errors : sum local = 5.28776e-07, global = -4.52212e-08, cumulative = -1.58937e-05
rho max/min : 994.512 980.57
ExecutionTime = 1.57 s  ClockTime = 2 s

Time = 0.01

Courant Number mean: 1.61223 max: 4.72703
diagonal:  Solving for rho, Initial residual = 0, Final residual = 0, No Iterations 0
PIMPLE: iteration 1
DILUPBiCGStab:  Solving for Ux, Initial residual = 0.00130806, Final residual = 2.41668e-08, No Iterations 2
DILUPBiCGStab:  Solving for Uy, Initial residual = 0.00219584, Final residual = 4.94081e-09, No Iterations 2
DILUPBiCGStab:  Solving for Uz, Initial residual = 0.180977, Final residual = 9.53365e-09, No Iterations 3
DILUPBiCGStab:  Solving for e, Initial residual = 0.071548, Final residual = 2.68943e-09, No Iterations 3
GAMG:  Solving for p, Initial residual = 0.0614544, Final residual = 6.84778e-08, No Iterations 10
diagonal:  Solving for rho, Initial residual = 0, Final residual = 0, No Iterations 0
time step continuity errors : sum local = 6.16728e-07, global = 3.4328e-09, cumulative = -1.58903e-05
rho max/min : 994.512 980.57
GAMG:  Solving for p, Initial residual = 0.0110043, Final residual = 9.50748e-08, No Iterations 9
diagonal:  Solving for rho, Initial residual = 0, Final residual = 0, No Iterations 0
time step continuity errors : sum local = 8.76051e-07, global = 1.18924e-09, cumulative = -1.58891e-05
rho max/min : 994.512 980.57
GAMG:  Solving for p, Initial residual = 0.00393977, Final residual = 5.48079e-08, No Iterations 7
diagonal:  Solving for rho, Initial residual = 0, Final residual = 0, No Iterations 0
time step continuity errors : sum local = 5.04578e-07, global = -6.12351e-09, cumulative = -1.58952e-05
rho max/min : 994.512 980.57
ExecutionTime = 1.85 s  ClockTime = 2 s

Time = 0.012

Courant Number mean: 1.61226 max: 4.73799
diagonal:  Solving for rho, Initial residual = 0, Final residual = 0, No Iterations 0
PIMPLE: iteration 1
DILUPBiCGStab:  Solving for Ux, Initial residual = 0.00114768, Final residual = 4.0071e-08, No Iterations 2
DILUPBiCGStab:  Solving for Uy, Initial residual = 0.00209436, Final residual = 9.28777e-09, No Iterations 2
DILUPBiCGStab:  Solving for Uz, Initial residual = 0.152285, Final residual = 1.04501e-08, No Iterations 3
DILUPBiCGStab:  Solving for e, Initial residual = 0.0578411, Final residual = 2.20202e-09, No Iterations 3
GAMG:  Solving for p, Initial residual = 0.0473235, Final residual = 5.22887e-08, No Iterations 10
diagonal:  Solving for rho, Initial residual = 0, Final residual = 0, No Iterations 0
time step continuity errors : sum local = 4.8798e-07, global = 4.17717e-09, cumulative = -1.5891e-05
rho max/min : 994.512 980.57
GAMG:  Solving for p, Initial residual = 0.0082374, Final residual = 5.77737e-08, No Iterations 10
diagonal:  Solving for rho, Initial residual = 0, Final residual = 0, No Iterations 0
time step continuity errors : sum local = 5.44552e-07, global = -5.53386e-11, cumulative = -1.58911e-05
rho max/min : 994.512 980.57
GAMG:  Solving for p, Initial residual = 0.00305893, Final residual = 3.50967e-08, No Iterations 7
diagonal:  Solving for rho, Initial residual = 0, Final residual = 0, No Iterations 0
time step continuity errors : sum local = 3.30883e-07, global = -1.20603e-08, cumulative = -1.59032e-05
rho max/min : 994.512 980.57
ExecutionTime = 2.12 s  ClockTime = 2 s

Time = 0.014

Courant Number mean: 1.61236 max: 4.75225
diagonal:  Solving for rho, Initial residual = 0, Final residual = 0, No Iterations 0
PIMPLE: iteration 1
DILUPBiCGStab:  Solving for Ux, Initial residual = 0.00104622, Final residual = 3.16064e-08, No Iterations 2
DILUPBiCGStab:  Solving for Uy, Initial residual = 0.00203314, Final residual = 1.60904e-08, No Iterations 2
DILUPBiCGStab:  Solving for Uz, Initial residual = 0.132142, Final residual = 1.12249e-08, No Iterations 3
DILUPBiCGStab:  Solving for e, Initial residual = 0.0484981, Final residual = 1.82337e-09, No Iterations 3
GAMG:  Solving for p, Initial residual = 0.0423052, Final residual = 4.30942e-08, No Iterations 10
diagonal:  Solving for rho, Initial residual = 0, Final residual = 0, No Iterations 0
time step continuity errors : sum local = 4.07363e-07, global = 7.06091e-10, cumulative = -1.59025e-05
rho max/min : 994.512 980.57
GAMG:  Solving for p, Initial residual = 0.00704666, Final residual = 3.62701e-08, No Iterations 10
diagonal:  Solving for rho, Initial residual = 0, Final residual = 0, No Iterations 0
time step continuity errors : sum local = 3.42468e-07, global = -6.72347e-10, cumulative = -1.59031e-05
rho max/min : 994.512 980.57
GAMG:  Solving for p, Initial residual = 0.00266646, Final residual = 9.72403e-08, No Iterations 6
diagonal:  Solving for rho, Initial residual = 0, Final residual = 0, No Iterations 0
time step continuity errors : sum local = 9.19708e-07, global = 5.78744e-09, cumulative = -1.58973e-05
rho max/min : 994.512 980.57
ExecutionTime = 2.39 s  ClockTime = 2 s

Time = 0.016

Courant Number mean: 1.61252 max: 4.764
diagonal:  Solving for rho, Initial residual = 0, Final residual = 0, No Iterations 0
PIMPLE: iteration 1
DILUPBiCGStab:  Solving for Ux, Initial residual = 0.000989953, Final residual = 1.2613e-08, No Iterations 2
DILUPBiCGStab:  Solving for Uy, Initial residual = 0.00199484, Final residual = 7.30344e-09, No Iterations 2
DILUPBiCGStab:  Solving for Uz, Initial residual = 0.115076, Final residual = 1.09039e-08, No Iterations 3
DILUPBiCGStab:  Solving for e, Initial residual = 0.0417169, Final residual = 1.51591e-09, No Iterations 3
GAMG:  Solving for p, Initial residual = 0.0415654, Final residual = 6.37814e-08, No Iterations 10
diagonal:  Solving for rho, Initial residual = 0, Final residual = 0, No Iterations 0
time step continuity errors : sum local = 6.00315e-07, global = 3.43273e-09, cumulative = -1.58939e-05
rho max/min : 994.512 980.57
GAMG:  Solving for p, Initial residual = 0.00679585, Final residual = 8.18454e-08, No Iterations 9
diagonal:  Solving for rho, Initial residual = 0, Final residual = 0, No Iterations 0
time step continuity errors : sum local = 7.63604e-07, global = -3.1922e-09, cumulative = -1.58971e-05
rho max/min : 994.512 980.57
GAMG:  Solving for p, Initial residual = 0.00247775, Final residual = 3.94857e-08, No Iterations 7
diagonal:  Solving for rho, Initial residual = 0, Final residual = 0, No Iterations 0
time step continuity errors : sum local = 3.69102e-07, global = -2.65394e-09, cumulative = -1.58998e-05
rho max/min : 994.512 980.57
ExecutionTime = 2.68 s  ClockTime = 3 s

Time = 0.018

Courant Number mean: 1.61274 max: 4.77182
diagonal:  Solving for rho, Initial residual = 0, Final residual = 0, No Iterations 0
PIMPLE: iteration 1
DILUPBiCGStab:  Solving for Ux, Initial residual = 0.000974868, Final residual = 1.49346e-08, No Iterations 2
DILUPBiCGStab:  Solving for Uy, Initial residual = 0.00194765, Final residual = 7.81139e-08, No Iterations 2
DILUPBiCGStab:  Solving for Uz, Initial residual = 0.102134, Final residual = 1.01913e-08, No Iterations 3
DILUPBiCGStab:  Solving for e, Initial residual = 0.0365685, Final residual = 1.33452e-09, No Iterations 3
GAMG:  Solving for p, Initial residual = 0.0416841, Final residual = 5.54712e-08, No Iterations 10
diagonal:  Solving for rho, Initial residual = 0, Final residual = 0, No Iterations 0
time step continuity errors : sum local = 5.13097e-07, global = 6.45907e-09, cumulative = -1.58933e-05
rho max/min : 994.512 980.57
GAMG:  Solving for p, Initial residual = 0.00681816, Final residual = 8.57125e-08, No Iterations 9
diagonal:  Solving for rho, Initial residual = 0, Final residual = 0, No Iterations 0
time step continuity errors : sum local = 7.81772e-07, global = -6.41201e-09, cumulative = -1.58997e-05
rho max/min : 994.512 980.57
GAMG:  Solving for p, Initial residual = 0.00235637, Final residual = 4.81784e-08, No Iterations 7
diagonal:  Solving for rho, Initial residual = 0, Final residual = 0, No Iterations 0
time step continuity errors : sum local = 4.4024e-07, global = -2.61123e-09, cumulative = -1.59023e-05
rho max/min : 994.512 980.57
ExecutionTime = 2.96 s  ClockTime = 3 s

Time = 0.02

Courant Number mean: 1.61301 max: 4.77592
diagonal:  Solving for rho, Initial residual = 0, Final residual = 0, No Iterations 0
PIMPLE: iteration 1
DILUPBiCGStab:  Solving for Ux, Initial residual = 0.000955275, Final residual = 3.41516e-08, No Iterations 2
DILUPBiCGStab:  Solving for Uy, Initial residual = 0.00189022, Final residual = 5.55414e-08, No Iterations 2
DILUPBiCGStab:  Solving for Uz, Initial residual = 0.091606, Final residual = 8.70348e-09, No Iterations 3
DILUPBiCGStab:  Solving for e, Initial residual = 0.0325277, Final residual = 1.28856e-09, No Iterations 3
GAMG:  Solving for p, Initial residual = 0.0419547, Final residual = 9.01147e-08, No Iterations 10
diagonal:  Solving for rho, Initial residual = 0, Final residual = 0, No Iterations 0
time step continuity errors : sum local = 8.11907e-07, global = 5.57435e-09, cumulative = -1.58967e-05
rho max/min : 994.512 980.57
GAMG:  Solving for p, Initial residual = 0.00683592, Final residual = 3.19704e-08, No Iterations 10
diagonal:  Solving for rho, Initial residual = 0, Final residual = 0, No Iterations 0
time step continuity errors : sum local = 2.83113e-07, global = -3.35354e-09, cumulative = -1.59001e-05
rho max/min : 994.512 980.57
GAMG:  Solving for p, Initial residual = 0.00225724, Final residual = 5.55365e-08, No Iterations 7
diagonal:  Solving for rho, Initial residual = 0, Final residual = 0, No Iterations 0
time step continuity errors : sum local = 4.92724e-07, global = -2.67743e-09, cumulative = -1.59028e-05
rho max/min : 994.512 980.57
ExecutionTime = 3.37 s  ClockTime = 3 s

Time = 0.022

Courant Number mean: 1.61332 max: 4.80564
diagonal:  Solving for rho, Initial residual = 0, Final residual = 0, No Iterations 0
PIMPLE: iteration 1
DILUPBiCGStab:  Solving for Ux, Initial residual = 0.000948373, Final residual = 3.047e-08, No Iterations 2
DILUPBiCGStab:  Solving for Uy, Initial residual = 0.00183181, Final residual = 4.94713e-08, No Iterations 2
DILUPBiCGStab:  Solving for Uz, Initial residual = 0.0832661, Final residual = 6.60969e-09, No Iterations 3
DILUPBiCGStab:  Solving for e, Initial residual = 0.0292715, Final residual = 1.23174e-09, No Iterations 3
GAMG:  Solving for p, Initial residual = 0.0423967, Final residual = 5.82227e-08, No Iterations 11
diagonal:  Solving for rho, Initial residual = 0, Final residual = 0, No Iterations 0
time step continuity errors : sum local = 5.08817e-07, global = -1.66895e-09, cumulative = -1.59044e-05
rho max/min : 994.512 980.57
GAMG:  Solving for p, Initial residual = 0.00704884, Final residual = 3.4506e-08, No Iterations 10
diagonal:  Solving for rho, Initial residual = 0, Final residual = 0, No Iterations 0
time step continuity errors : sum local = 2.96074e-07, global = -3.17618e-09, cumulative = -1.59076e-05
rho max/min : 994.512 980.57
GAMG:  Solving for p, Initial residual = 0.00222706, Final residual = 6.00081e-08, No Iterations 7
diagonal:  Solving for rho, Initial residual = 0, Final residual = 0, No Iterations 0
time step continuity errors : sum local = 5.15776e-07, global = -2.66641e-09, cumulative = -1.59103e-05
rho max/min : 994.512 980.57
ExecutionTime = 3.67 s  ClockTime = 4 s

Time = 0.024

Courant Number mean: 1.61367 max: 4.84927
diagonal:  Solving for rho, Initial residual = 0, Final residual = 0, No Iterations 0
PIMPLE: iteration 1
DILUPBiCGStab:  Solving for Ux, Initial residual = 0.000954142, Final residual = 3.49152e-08, No Iterations 2
DILUPBiCGStab:  Solving for Uy, Initial residual = 0.00178934, Final residual = 5.02771e-08, No Iterations 2
DILUPBiCGStab:  Solving for Uz, Initial residual = 0.0764529, Final residual = 5.13433e-09, No Iterations 3
DILUPBiCGStab:  Solving for e, Initial residual = 0.0265921, Final residual = 1.14526e-09, No Iterations 3
GAMG:  Solving for p, Initial residual = 0.0419834, Final residual = 6.50108e-08, No Iterations 11
diagonal:  Solving for rho, Initial residual = 0, Final residual = 0, No Iterations 0
time step continuity errors : sum local = 5.54723e-07, global = -3.64565e-09, cumulative = -1.59139e-05
rho max/min : 994.512 980.57
GAMG:  Solving for p, Initial residual = 0.00736428, Final residual = 3.88241e-08, No Iterations 10
diagonal:  Solving for rho, Initial residual = 0, Final residual = 0, No Iterations 0
time step continuity errors : sum local = 3.28006e-07, global = -2.59345e-09, cumulative = -1.59165e-05
rho max/min : 994.512 980.57
GAMG:  Solving for p, Initial residual = 0.00222463, Final residual = 6.73399e-08, No Iterations 7
diagonal:  Solving for rho, Initial residual = 0, Final residual = 0, No Iterations 0
time step continuity errors : sum local = 5.69337e-07, global = -2.65165e-09, cumulative = -1.59192e-05
rho max/min : 994.512 980.57
ExecutionTime = 3.95 s  ClockTime = 4 s

Time = 0.026

Courant Number mean: 1.61403 max: 4.88446
diagonal:  Solving for rho, Initial residual = 0, Final residual = 0, No Iterations 0
PIMPLE: iteration 1
DILUPBiCGStab:  Solving for Ux, Initial residual = 0.000966296, Final residual = 4.71154e-08, No Iterations 2
DILUPBiCGStab:  Solving for Uy, Initial residual = 0.00170529, Final residual = 5.65521e-08, No Iterations 2
DILUPBiCGStab:  Solving for Uz, Initial residual = 0.0710178, Final residual = 5.12071e-09, No Iterations 3
DILUPBiCGStab:  Solving for e, Initial residual = 0.0243496, Final residual = 1.00708e-09, No Iterations 3
GAMG:  Solving for p, Initial residual = 0.0381797, Final residual = 5.18236e-08, No Iterations 11
diagonal:  Solving for rho, Initial residual = 0, Final residual = 0, No Iterations 0
time step continuity errors : sum local = 4.3732e-07, global = -8.38594e-09, cumulative = -1.59276e-05
rho max/min : 994.512 980.57
GAMG:  Solving for p, Initial residual = 0.00717235, Final residual = 4.65737e-08, No Iterations 10
diagonal:  Solving for rho, Initial residual = 0, Final residual = 0, No Iterations 0
time step continuity errors : sum local = 3.92268e-07, global = -3.96552e-09, cumulative = -1.59315e-05
rho max/min : 994.512 980.57
GAMG:  Solving for p, Initial residual = 0.00210152, Final residual = 6.69578e-08, No Iterations 7
diagonal:  Solving for rho, Initial residual = 0, Final residual = 0, No Iterations 0
time step continuity errors : sum local = 5.64491e-07, global = -2.39566e-09, cumulative = -1.59339e-05
rho max/min : 994.512 980.57
ExecutionTime = 4.25 s  ClockTime = 4 s

Time = 0.028

Courant Number mean: 1.61442 max: 4.91287
diagonal:  Solving for rho, Initial residual = 0, Final residual = 0, No Iterations 0
PIMPLE: iteration 1
DILUPBiCGStab:  Solving for Ux, Initial residual = 0.000975302, Final residual = 8.9926e-08, No Iterations 2
DILUPBiCGStab:  Solving for Uy, Initial residual = 0.00160976, Final residual = 6.91988e-08, No Iterations 2
DILUPBiCGStab:  Solving for Uz, Initial residual = 0.0660666, Final residual = 8.90356e-09, No Iterations 3
DILUPBiCGStab:  Solving for e, Initial residual = 0.0224454, Final residual = 8.45201e-08, No Iterations 2
GAMG:  Solving for p, Initial residual = 0.0329585, Final residual = 4.79309e-08, No Iterations 11
diagonal:  Solving for rho, Initial residual = 0, Final residual = 0, No Iterations 0
time step continuity errors : sum local = 4.0526e-07, global = 6.43555e-10, cumulative = -1.59333e-05
rho max/min : 994.512 980.57
GAMG:  Solving for p, Initial residual = 0.00696585, Final residual = 4.66541e-08, No Iterations 10
diagonal:  Solving for rho, Initial residual = 0, Final residual = 0, No Iterations 0
time step continuity errors : sum local = 3.95955e-07, global = -5.23566e-09, cumulative = -1.59385e-05
rho max/min : 994.512 980.57
GAMG:  Solving for p, Initial residual = 0.00196853, Final residual = 5.81331e-08, No Iterations 7
diagonal:  Solving for rho, Initial residual = 0, Final residual = 0, No Iterations 0
time step continuity errors : sum local = 4.93913e-07, global = -2.2796e-09, cumulative = -1.59408e-05
rho max/min : 994.512 980.57
ExecutionTime = 4.54 s  ClockTime = 5 s

Time = 0.03

Courant Number mean: 1.61484 max: 4.93576
diagonal:  Solving for rho, Initial residual = 0, Final residual = 0, No Iterations 0
PIMPLE: iteration 1
DILUPBiCGStab:  Solving for Ux, Initial residual = 0.000982938, Final residual = 4.8023e-08, No Iterations 2
DILUPBiCGStab:  Solving for Uy, Initial residual = 0.00152205, Final residual = 8.19306e-08, No Iterations 2
DILUPBiCGStab:  Solving for Uz, Initial residual = 0.0616864, Final residual = 5.78024e-09, No Iterations 3
DILUPBiCGStab:  Solving for e, Initial residual = 0.0208095, Final residual = 7.34836e-08, No Iterations 2
GAMG:  Solving for p, Initial residual = 0.0284011, Final residual = 3.39036e-08, No Iterations 11
diagonal:  Solving for rho, Initial residual = 0, Final residual = 0, No Iterations 0
time step continuity errors : sum local = 2.89158e-07, global = 1.57594e-09, cumulative = -1.59392e-05
rho max/min : 994.512 980.57
GAMG:  Solving for p, Initial residual = 0.00671385, Final residual = 4.83533e-08, No Iterations 10
diagonal:  Solving for rho, Initial residual = 0, Final residual = 0, No Iterations 0
time step continuity errors : sum local = 4.14496e-07, global = -4.7479e-09, cumulative = -1.5944e-05
rho max/min : 994.512 980.57
GAMG:  Solving for p, Initial residual = 0.00189631, Final residual = 4.04363e-08, No Iterations 7
diagonal:  Solving for rho, Initial residual = 0, Final residual = 0, No Iterations 0
time step continuity errors : sum local = 3.47022e-07, global = 1.49351e-09, cumulative = -1.59425e-05
rho max/min : 994.512 980.57
ExecutionTime = 4.84 s  ClockTime = 5 s

Time = 0.032

Courant Number mean: 1.61529 max: 4.95106
diagonal:  Solving for rho, Initial residual = 0, Final residual = 0, No Iterations 0
PIMPLE: iteration 1
DILUPBiCGStab:  Solving for Ux, Initial residual = 0.000992017, Final residual = 5.64611e-09, No Iterations 2
DILUPBiCGStab:  Solving for Uy, Initial residual = 0.00146257, Final residual = 9.06413e-08, No Iterations 2
DILUPBiCGStab:  Solving for Uz, Initial residual = 0.0576049, Final residual = 1.28771e-08, No Iterations 3
DILUPBiCGStab:  Solving for e, Initial residual = 0.0193899, Final residual = 7.88616e-08, No Iterations 2
GAMG:  Solving for p, Initial residual = 0.0250175, Final residual = 3.04084e-08, No Iterations 11
diagonal:  Solving for rho, Initial residual = 0, Final residual = 0, No Iterations 0
time step continuity errors : sum local = 2.61952e-07, global = 2.60923e-09, cumulative = -1.59399e-05
rho max/min : 994.512 980.57
GAMG:  Solving for p, Initial residual = 0.00639478, Final residual = 4.46029e-08, No Iterations 10
diagonal:  Solving for rho, Initial residual = 0, Final residual = 0, No Iterations 0
time step continuity errors : sum local = 3.86218e-07, global = -4.93324e-09, cumulative = -1.59448e-05
rho max/min : 994.512 980.57
GAMG:  Solving for p, Initial residual = 0.00180674, Final residual = 3.58578e-08, No Iterations 7
diagonal:  Solving for rho, Initial residual = 0, Final residual = 0, No Iterations 0
time step continuity errors : sum local = 3.1089e-07, global = 1.16114e-09, cumulative = -1.59436e-05
rho max/min : 994.512 980.57
ExecutionTime = 5.12 s  ClockTime = 5 s

Time = 0.034

Courant Number mean: 1.61576 max: 4.96282
diagonal:  Solving for rho, Initial residual = 0, Final residual = 0, No Iterations 0
PIMPLE: iteration 1
DILUPBiCGStab:  Solving for Ux, Initial residual = 0.00100472, Final residual = 8.79863e-08, No Iterations 2
DILUPBiCGStab:  Solving for Uy, Initial residual = 0.00141489, Final residual = 9.57108e-08, No Iterations 2
DILUPBiCGStab:  Solving for Uz, Initial residual = 0.053789, Final residual = 2.20374e-08, No Iterations 3
DILUPBiCGStab:  Solving for e, Initial residual = 0.0181617, Final residual = 6.01063e-10, No Iterations 3
GAMG:  Solving for p, Initial residual = 0.0221137, Final residual = 9.82346e-08, No Iterations 10
diagonal:  Solving for rho, Initial residual = 0, Final residual = 0, No Iterations 0
time step continuity errors : sum local = 8.54738e-07, global = 1.13075e-08, cumulative = -1.59323e-05
rho max/min : 994.512 980.57
GAMG:  Solving for p, Initial residual = 0.00618337, Final residual = 3.37868e-08, No Iterations 10
diagonal:  Solving for rho, Initial residual = 0, Final residual = 0, No Iterations 0
time step continuity errors : sum local = 2.9533e-07, global = -4.86637e-09, cumulative = -1.59372e-05
rho max/min : 994.512 980.57
GAMG:  Solving for p, Initial residual = 0.00172501, Final residual = 4.72529e-08, No Iterations 7
diagonal:  Solving for rho, Initial residual = 0, Final residual = 0, No Iterations 0
time step continuity errors : sum local = 4.13595e-07, global = 1.67928e-09, cumulative = -1.59355e-05
rho max/min : 994.512 980.57
ExecutionTime = 5.42 s  ClockTime = 5 s

Time = 0.036

Courant Number mean: 1.61633 max: 4.97168
diagonal:  Solving for rho, Initial residual = 0, Final residual = 0, No Iterations 0
PIMPLE: iteration 1
DILUPBiCGStab:  Solving for Ux, Initial residual = 0.00101939, Final residual = 7.35733e-08, No Iterations 2
DILUPBiCGStab:  Solving for Uy, Initial residual = 0.00139346, Final residual = 3.83972e-09, No Iterations 2
DILUPBiCGStab:  Solving for Uz, Initial residual = 0.0501275, Final residual = 1.93276e-08, No Iterations 3
DILUPBiCGStab:  Solving for e, Initial residual = 0.0170781, Final residual = 6.61961e-10, No Iterations 3
GAMG:  Solving for p, Initial residual = 0.0202431, Final residual = 9.44387e-08, No Iterations 10
diagonal:  Solving for rho, Initial residual = 0, Final residual = 0, No Iterations 0
time step continuity errors : sum local = 8.2931e-07, global = 1.14885e-08, cumulative = -1.5924e-05
rho max/min : 994.512 980.57
GAMG:  Solving for p, Initial residual = 0.00622006, Final residual = 3.03359e-08, No Iterations 10
diagonal:  Solving for rho, Initial residual = 0, Final residual = 0, No Iterations 0
time step continuity errors : sum local = 2.67431e-07, global = -3.51815e-09, cumulative = -1.59275e-05
rho max/min : 994.512 980.57
GAMG:  Solving for p, Initial residual = 0.00168672, Final residual = 8.5536e-08, No Iterations 7
diagonal:  Solving for rho, Initial residual = 0, Final residual = 0, No Iterations 0
time step continuity errors : sum local = 7.55218e-07, global = 2.67359e-09, cumulative = -1.59249e-05
rho max/min : 994.512 980.57
ExecutionTime = 5.71 s  ClockTime = 6 s

Time = 0.038

Courant Number mean: 1.61695 max: 4.97778
diagonal:  Solving for rho, Initial residual = 0, Final residual = 0, No Iterations 0
PIMPLE: iteration 1
DILUPBiCGStab:  Solving for Ux, Initial residual = 0.00103839, Final residual = 7.66914e-08, No Iterations 2
DILUPBiCGStab:  Solving for Uy, Initial residual = 0.0013905, Final residual = 3.71293e-09, No Iterations 2
DILUPBiCGStab:  Solving for Uz, Initial residual = 0.0471096, Final residual = 1.85457e-08, No Iterations 3
DILUPBiCGStab:  Solving for e, Initial residual = 0.0161146, Final residual = 7.06488e-10, No Iterations 3
GAMG:  Solving for p, Initial residual = 0.0193906, Final residual = 9.66675e-08, No Iterations 10
diagonal:  Solving for rho, Initial residual = 0, Final residual = 0, No Iterations 0
time step continuity errors : sum local = 8.55228e-07, global = 6.53067e-09, cumulative = -1.59183e-05
rho max/min : 994.512 980.57
GAMG:  Solving for p, Initial residual = 0.00630841, Final residual = 2.89976e-08, No Iterations 10
diagonal:  Solving for rho, Initial residual = 0, Final residual = 0, No Iterations 0
time step continuity errors : sum local = 2.57255e-07, global = -2.53579e-09, cumulative = -1.59209e-05
rho max/min : 994.512 980.57
GAMG:  Solving for p, Initial residual = 0.00165029, Final residual = 9.73393e-08, No Iterations 7
diagonal:  Solving for rho, Initial residual = 0, Final residual = 0, No Iterations 0
time step continuity errors : sum local = 8.64786e-07, global = 2.62652e-09, cumulative = -1.59183e-05
rho max/min : 994.512 980.57
ExecutionTime = 5.98 s  ClockTime = 6 s

Time = 0.04

Courant Number mean: 1.61762 max: 4.98162
diagonal:  Solving for rho, Initial residual = 0, Final residual = 0, No Iterations 0
PIMPLE: iteration 1
DILUPBiCGStab:  Solving for Ux, Initial residual = 0.00105649, Final residual = 7.57421e-08, No Iterations 2
DILUPBiCGStab:  Solving for Uy, Initial residual = 0.00139873, Final residual = 4.15503e-09, No Iterations 2
DILUPBiCGStab:  Solving for Uz, Initial residual = 0.0445149, Final residual = 1.33409e-08, No Iterations 3
DILUPBiCGStab:  Solving for e, Initial residual = 0.0152653, Final residual = 7.32337e-10, No Iterations 3
GAMG:  Solving for p, Initial residual = 0.0185662, Final residual = 9.8451e-08, No Iterations 10
diagonal:  Solving for rho, Initial residual = 0, Final residual = 0, No Iterations 0
time step continuity errors : sum local = 8.75892e-07, global = -6.17468e-10, cumulative = -1.59189e-05
rho max/min : 994.512 980.57
GAMG:  Solving for p, Initial residual = 0.00641172, Final residual = 3.2491e-08, No Iterations 10
diagonal:  Solving for rho, Initial residual = 0, Final residual = 0, No Iterations 0
time step continuity errors : sum local = 2.89785e-07, global = -3.61769e-09, cumulative = -1.59225e-05
rho max/min : 994.512 980.57
GAMG:  Solving for p, Initial residual = 0.00158575, Final residual = 9.71518e-08, No Iterations 7
diagonal:  Solving for rho, Initial residual = 0, Final residual = 0, No Iterations 0
time step continuity errors : sum local = 8.67471e-07, global = 2.4298e-09, cumulative = -1.59201e-05
rho max/min : 994.512 980.57
ExecutionTime = 6.37 s  ClockTime = 6 s

Time = 0.042

Courant Number mean: 1.61833 max: 4.98359
diagonal:  Solving for rho, Initial residual = 0, Final residual = 0, No Iterations 0
PIMPLE: iteration 1
DILUPBiCGStab:  Solving for Ux, Initial residual = 0.00107391, Final residual = 7.95971e-08, No Iterations 2
DILUPBiCGStab:  Solving for Uy, Initial residual = 0.00141994, Final residual = 6.75819e-09, No Iterations 2
DILUPBiCGStab:  Solving for Uz, Initial residual = 0.0423305, Final residual = 1.11504e-08, No Iterations 3
DILUPBiCGStab:  Solving for e, Initial residual = 0.0145009, Final residual = 1.0301e-09, No Iterations 3
GAMG:  Solving for p, Initial residual = 0.0175789, Final residual = 9.97095e-08, No Iterations 10
diagonal:  Solving for rho, Initial residual = 0, Final residual = 0, No Iterations 0
time step continuity errors : sum local = 8.91542e-07, global = -3.76332e-09, cumulative = -1.59238e-05
rho max/min : 994.512 980.57
GAMG:  Solving for p, Initial residual = 0.00645087, Final residual = 3.97543e-08, No Iterations 10
diagonal:  Solving for rho, Initial residual = 0, Final residual = 0, No Iterations 0
time step continuity errors : sum local = 3.56391e-07, global = -5.11009e-09, cumulative = -1.59289e-05
rho max/min : 994.512 980.57
GAMG:  Solving for p, Initial residual = 0.00150978, Final residual = 9.12323e-08, No Iterations 7
diagonal:  Solving for rho, Initial residual = 0, Final residual = 0, No Iterations 0
time step continuity errors : sum local = 8.1856e-07, global = 2.27778e-09, cumulative = -1.59267e-05
rho max/min : 994.512 980.57
ExecutionTime = 6.65 s  ClockTime = 7 s

Time = 0.044

Courant Number mean: 1.61907 max: 4.98446
diagonal:  Solving for rho, Initial residual = 0, Final residual = 0, No Iterations 0
PIMPLE: iteration 1
DILUPBiCGStab:  Solving for Ux, Initial residual = 0.00109163, Final residual = 8.75558e-08, No Iterations 2
DILUPBiCGStab:  Solving for Uy, Initial residual = 0.00144829, Final residual = 8.27619e-08, No Iterations 2
DILUPBiCGStab:  Solving for Uz, Initial residual = 0.0409789, Final residual = 1.21322e-08, No Iterations 3
DILUPBiCGStab:  Solving for e, Initial residual = 0.0138357, Final residual = 8.99927e-08, No Iterations 2
GAMG:  Solving for p, Initial residual = 0.0173626, Final residual = 8.49782e-08, No Iterations 10
diagonal:  Solving for rho, Initial residual = 0, Final residual = 0, No Iterations 0
time step continuity errors : sum local = 7.63416e-07, global = 4.3304e-09, cumulative = -1.59223e-05
rho max/min : 994.512 980.57
GAMG:  Solving for p, Initial residual = 0.00658357, Final residual = 4.58058e-08, No Iterations 10
diagonal:  Solving for rho, Initial residual = 0, Final residual = 0, No Iterations 0
time step continuity errors : sum local = 4.12671e-07, global = -5.254e-09, cumulative = -1.59276e-05
rho max/min : 994.512 980.57
GAMG:  Solving for p, Initial residual = 0.00146625, Final residual = 8.31883e-08, No Iterations 7
diagonal:  Solving for rho, Initial residual = 0, Final residual = 0, No Iterations 0
time step continuity errors : sum local = 7.49967e-07, global = 2.39027e-09, cumulative = -1.59252e-05
rho max/min : 994.512 980.57
ExecutionTime = 6.94 s  ClockTime = 7 s

Time = 0.046

Courant Number mean: 1.61985 max: 4.98437
diagonal:  Solving for rho, Initial residual = 0, Final residual = 0, No Iterations 0
PIMPLE: iteration 1
DILUPBiCGStab:  Solving for Ux, Initial residual = 0.00111206, Final residual = 9.71468e-08, No Iterations 2
DILUPBiCGStab:  Solving for Uy, Initial residual = 0.00148044, Final residual = 6.81457e-09, No Iterations 2
DILUPBiCGStab:  Solving for Uz, Initial residual = 0.0407346, Final residual = 1.46447e-08, No Iterations 3
DILUPBiCGStab:  Solving for e, Initial residual = 0.0132237, Final residual = 6.96644e-08, No Iterations 2
GAMG:  Solving for p, Initial residual = 0.0172112, Final residual = 7.37023e-08, No Iterations 10
diagonal:  Solving for rho, Initial residual = 0, Final residual = 0, No Iterations 0
time step continuity errors : sum local = 6.65031e-07, global = 8.68777e-09, cumulative = -1.59165e-05
rho max/min : 994.512 980.57
GAMG:  Solving for p, Initial residual = 0.00671692, Final residual = 4.29396e-08, No Iterations 10
diagonal:  Solving for rho, Initial residual = 0, Final residual = 0, No Iterations 0
time step continuity errors : sum local = 3.88471e-07, global = -2.46389e-09, cumulative = -1.5919e-05
rho max/min : 994.512 980.57
GAMG:  Solving for p, Initial residual = 0.00143493, Final residual = 7.24395e-08, No Iterations 7
diagonal:  Solving for rho, Initial residual = 0, Final residual = 0, No Iterations 0
time step continuity errors : sum local = 6.55645e-07, global = 2.70777e-09, cumulative = -1.59163e-05
rho max/min : 994.512 980.57
ExecutionTime = 7.22 s  ClockTime = 7 s

Time = 0.048

Courant Number mean: 1.62067 max: 4.98316
diagonal:  Solving for rho, Initial residual = 0, Final residual = 0, No Iterations 0
PIMPLE: iteration 1
DILUPBiCGStab:  Solving for Ux, Initial residual = 0.00113347, Final residual = 3.73288e-09, No Iterations 2
DILUPBiCGStab:  Solving for Uy, Initial residual = 0.00151712, Final residual = 4.28051e-09, No Iterations 2
DILUPBiCGStab:  Solving for Uz, Initial residual = 0.041029, Final residual = 1.71331e-08, No Iterations 3
DILUPBiCGStab:  Solving for e, Initial residual = 0.0126818, Final residual = 5.63407e-08, No Iterations 2
GAMG:  Solving for p, Initial residual = 0.0174355, Final residual = 6.99374e-08, No Iterations 10
diagonal:  Solving for rho, Initial residual = 0, Final residual = 0, No Iterations 0
time step continuity errors : sum local = 6.33776e-07, global = 1.05998e-08, cumulative = -1.59057e-05
rho max/min : 994.512 980.57
GAMG:  Solving for p, Initial residual = 0.0069235, Final residual = 4.16763e-08, No Iterations 10
diagonal:  Solving for rho, Initial residual = 0, Final residual = 0, No Iterations 0
time step continuity errors : sum local = 3.78753e-07, global = -6.78585e-10, cumulative = -1.59063e-05
rho max/min : 994.512 980.57
GAMG:  Solving for p, Initial residual = 0.00142257, Final residual = 6.0013e-08, No Iterations 7
diagonal:  Solving for rho, Initial residual = 0, Final residual = 0, No Iterations 0
time step continuity errors : sum local = 5.45599e-07, global = 2.7972e-09, cumulative = -1.59035e-05
rho max/min : 994.512 980.57
ExecutionTime = 7.52 s  ClockTime = 8 s

Time = 0.05

Courant Number mean: 1.62153 max: 4.98115
diagonal:  Solving for rho, Initial residual = 0, Final residual = 0, No Iterations 0
PIMPLE: iteration 1
DILUPBiCGStab:  Solving for Ux, Initial residual = 0.00115807, Final residual = 4.78257e-09, No Iterations 2
DILUPBiCGStab:  Solving for Uy, Initial residual = 0.00155708, Final residual = 4.48978e-09, No Iterations 2
DILUPBiCGStab:  Solving for Uz, Initial residual = 0.0412522, Final residual = 2.2452e-08, No Iterations 3
DILUPBiCGStab:  Solving for e, Initial residual = 0.0122041, Final residual = 4.9765e-08, No Iterations 2
GAMG:  Solving for p, Initial residual = 0.017767, Final residual = 6.98484e-08, No Iterations 10
diagonal:  Solving for rho, Initial residual = 0, Final residual = 0, No Iterations 0
time step continuity errors : sum local = 6.3576e-07, global = 1.30775e-08, cumulative = -1.58905e-05
rho max/min : 994.512 980.57
GAMG:  Solving for p, Initial residual = 0.00714279, Final residual = 4.16808e-08, No Iterations 10
diagonal:  Solving for rho, Initial residual = 0, Final residual = 0, No Iterations 0
time step continuity errors : sum local = 3.8033e-07, global = -1.60092e-10, cumulative = -1.58906e-05
rho max/min : 994.512 980.57
GAMG:  Solving for p, Initial residual = 0.00141094, Final residual = 4.92232e-08, No Iterations 7
diagonal:  Solving for rho, Initial residual = 0, Final residual = 0, No Iterations 0
time step continuity errors : sum local = 4.49225e-07, global = 2.3738e-09, cumulative = -1.58882e-05
rho max/min : 994.512 980.57
ExecutionTime = 7.79 s  ClockTime = 8 s

Time = 0.052

Courant Number mean: 1.62244 max: 4.97859
diagonal:  Solving for rho, Initial residual = 0, Final residual = 0, No Iterations 0
PIMPLE: iteration 1
DILUPBiCGStab:  Solving for Ux, Initial residual = 0.00118508, Final residual = 3.31901e-08, No Iterations 2
DILUPBiCGStab:  Solving for Uy, Initial residual = 0.00159737, Final residual = 5.44545e-09, No Iterations 2
DILUPBiCGStab:  Solving for Uz, Initial residual = 0.0413585, Final residual = 2.18329e-08, No Iterations 3
DILUPBiCGStab:  Solving for e, Initial residual = 0.0117864, Final residual = 4.60579e-08, No Iterations 2
GAMG:  Solving for p, Initial residual = 0.0181432, Final residual = 7.15019e-08, No Iterations 10
diagonal:  Solving for rho, Initial residual = 0, Final residual = 0, No Iterations 0
time step continuity errors : sum local = 6.53286e-07, global = 1.43738e-08, cumulative = -1.58739e-05
rho max/min : 994.512 980.57
GAMG:  Solving for p, Initial residual = 0.00734288, Final residual = 4.14064e-08, No Iterations 10
diagonal:  Solving for rho, Initial residual = 0, Final residual = 0, No Iterations 0
time step continuity errors : sum local = 3.79116e-07, global = 1.74623e-10, cumulative = -1.58737e-05
rho max/min : 994.512 980.57
GAMG:  Solving for p, Initial residual = 0.00140834, Final residual = 4.62167e-08, No Iterations 7
diagonal:  Solving for rho, Initial residual = 0, Final residual = 0, No Iterations 0
time step continuity errors : sum local = 4.23211e-07, global = 1.54849e-09, cumulative = -1.58721e-05
rho max/min : 994.512 980.57
ExecutionTime = 8.06 s  ClockTime = 8 s

Time = 0.054

Courant Number mean: 1.62339 max: 4.97547
diagonal:  Solving for rho, Initial residual = 0, Final residual = 0, No Iterations 0
PIMPLE: iteration 1
DILUPBiCGStab:  Solving for Ux, Initial residual = 0.0012136, Final residual = 1.19261e-08, No Iterations 2
DILUPBiCGStab:  Solving for Uy, Initial residual = 0.00163879, Final residual = 6.68372e-09, No Iterations 2
DILUPBiCGStab:  Solving for Uz, Initial residual = 0.0412223, Final residual = 1.95917e-08, No Iterations 3
DILUPBiCGStab:  Solving for e, Initial residual = 0.0113952, Final residual = 4.41951e-08, No Iterations 2
GAMG:  Solving for p, Initial residual = 0.0186983, Final residual = 7.61103e-08, No Iterations 10
diagonal:  Solving for rho, Initial residual = 0, Final residual = 0, No Iterations 0
time step continuity errors : sum local = 6.98353e-07, global = 9.17136e-09, cumulative = -1.5863e-05
rho max/min : 994.512 980.57
GAMG:  Solving for p, Initial residual = 0.00754199, Final residual = 4.15925e-08, No Iterations 10
diagonal:  Solving for rho, Initial residual = 0, Final residual = 0, No Iterations 0
time step continuity errors : sum local = 3.82498e-07, global = 8.54889e-10, cumulative = -1.58621e-05
rho max/min : 994.512 980.57
GAMG:  Solving for p, Initial residual = 0.00142957, Final residual = 4.78959e-08, No Iterations 7
diagonal:  Solving for rho, Initial residual = 0, Final residual = 0, No Iterations 0
time step continuity errors : sum local = 4.40262e-07, global = 1.17444e-09, cumulative = -1.58609e-05
rho max/min : 994.512 980.57
ExecutionTime = 8.35 s  ClockTime = 8 s

Time = 0.056

Courant Number mean: 1.62437 max: 4.97185
diagonal:  Solving for rho, Initial residual = 0, Final residual = 0, No Iterations 0
PIMPLE: iteration 1
DILUPBiCGStab:  Solving for Ux, Initial residual = 0.00124305, Final residual = 1.40979e-08, No Iterations 2
DILUPBiCGStab:  Solving for Uy, Initial residual = 0.00168066, Final residual = 8.5333e-09, No Iterations 2
DILUPBiCGStab:  Solving for Uz, Initial residual = 0.0414699, Final residual = 2.69965e-08, No Iterations 3
DILUPBiCGStab:  Solving for e, Initial residual = 0.0110466, Final residual = 4.45756e-08, No Iterations 2
GAMG:  Solving for p, Initial residual = 0.0192664, Final residual = 8.33333e-08, No Iterations 10
diagonal:  Solving for rho, Initial residual = 0, Final residual = 0, No Iterations 0
time step continuity errors : sum local = 7.68877e-07, global = 1.98532e-09, cumulative = -1.5859e-05
rho max/min : 994.512 980.57
GAMG:  Solving for p, Initial residual = 0.00779594, Final residual = 5.21302e-08, No Iterations 10
diagonal:  Solving for rho, Initial residual = 0, Final residual = 0, No Iterations 0
time step continuity errors : sum local = 4.82352e-07, global = -5.22034e-09, cumulative = -1.58642e-05
rho max/min : 994.512 980.57
GAMG:  Solving for p, Initial residual = 0.00147994, Final residual = 4.93252e-08, No Iterations 7
diagonal:  Solving for rho, Initial residual = 0, Final residual = 0, No Iterations 0
time step continuity errors : sum local = 4.56146e-07, global = 2.01445e-09, cumulative = -1.58622e-05
rho max/min : 994.512 980.57
ExecutionTime = 8.63 s  ClockTime = 9 s

Time = 0.058

Courant Number mean: 1.6254 max: 4.96799
diagonal:  Solving for rho, Initial residual = 0, Final residual = 0, No Iterations 0
PIMPLE: iteration 1
DILUPBiCGStab:  Solving for Ux, Initial residual = 0.00127175, Final residual = 1.73178e-08, No Iterations 2
DILUPBiCGStab:  Solving for Uy, Initial residual = 0.0017252, Final residual = 1.36062e-08, No Iterations 2
DILUPBiCGStab:  Solving for Uz, Initial residual = 0.0416119, Final residual = 3.20373e-08, No Iterations 3
DILUPBiCGStab:  Solving for e, Initial residual = 0.0107215, Final residual = 4.63445e-08, No Iterations 2
GAMG:  Solving for p, Initial residual = 0.0197124, Final residual = 8.3053e-08, No Iterations 10
diagonal:  Solving for rho, Initial residual = 0, Final residual = 0, No Iterations 0
time step continuity errors : sum local = 7.72124e-07, global = 5.54379e-10, cumulative = -1.58616e-05
rho max/min : 994.512 980.57
GAMG:  Solving for p, Initial residual = 0.00810441, Final residual = 5.87418e-08, No Iterations 10
diagonal:  Solving for rho, Initial residual = 0, Final residual = 0, No Iterations 0
time step continuity errors : sum local = 5.48275e-07, global = -5.36498e-09, cumulative = -1.5867e-05
rho max/min : 994.512 980.57
GAMG:  Solving for p, Initial residual = 0.00154919, Final residual = 7.05694e-08, No Iterations 7
diagonal:  Solving for rho, Initial residual = 0, Final residual = 0, No Iterations 0
time step continuity errors : sum local = 6.58596e-07, global = 3.20164e-09, cumulative = -1.58638e-05
rho max/min : 994.512 980.57
ExecutionTime = 8.91 s  ClockTime = 9 s

Time = 0.06

Courant Number mean: 1.62647 max: 4.96401
diagonal:  Solving for rho, Initial residual = 0, Final residual = 0, No Iterations 0
PIMPLE: iteration 1
DILUPBiCGStab:  Solving for Ux, Initial residual = 0.00129948, Final residual = 2.14287e-08, No Iterations 2
DILUPBiCGStab:  Solving for Uy, Initial residual = 0.00177661, Final residual = 2.73412e-08, No Iterations 2
DILUPBiCGStab:  Solving for Uz, Initial residual = 0.0419725, Final residual = 3.48429e-08, No Iterations 3
DILUPBiCGStab:  Solving for e, Initial residual = 0.010427, Final residual = 4.84411e-08, No Iterations 2
GAMG:  Solving for p, Initial residual = 0.0201563, Final residual = 7.82179e-08, No Iterations 10
diagonal:  Solving for rho, Initial residual = 0, Final residual = 0, No Iterations 0
time step continuity errors : sum local = 7.33979e-07, global = 1.11715e-09, cumulative = -1.58627e-05
rho max/min : 994.512 980.57
GAMG:  Solving for p, Initial residual = 0.00831136, Final residual = 5.21383e-08, No Iterations 10
diagonal:  Solving for rho, Initial residual = 0, Final residual = 0, No Iterations 0
time step continuity errors : sum local = 4.91078e-07, global = -1.70154e-09, cumulative = -1.58644e-05
rho max/min : 994.512 980.57
GAMG:  Solving for p, Initial residual = 0.0015856, Final residual = 7.14349e-08, No Iterations 7
diagonal:  Solving for rho, Initial residual = 0, Final residual = 0, No Iterations 0
time step continuity errors : sum local = 6.73043e-07, global = 1.1163e-09, cumulative = -1.58632e-05
rho max/min : 994.512 980.57
ExecutionTime = 9.31 s  ClockTime = 9 s

Time = 0.062

Courant Number mean: 1.62763 max: 4.95987
diagonal:  Solving for rho, Initial residual = 0, Final residual = 0, No Iterations 0
PIMPLE: iteration 1
DILUPBiCGStab:  Solving for Ux, Initial residual = 0.00132533, Final residual = 2.56473e-08, No Iterations 2
DILUPBiCGStab:  Solving for Uy, Initial residual = 0.00182571, Final residual = 9.3322e-08, No Iterations 2
DILUPBiCGStab:  Solving for Uz, Initial residual = 0.0420639, Final residual = 3.88028e-08, No Iterations 3
DILUPBiCGStab:  Solving for e, Initial residual = 0.0101566, Final residual = 4.96693e-08, No Iterations 2
GAMG:  Solving for p, Initial residual = 0.0207521, Final residual = 7.78244e-08, No Iterations 10
diagonal:  Solving for rho, Initial residual = 0, Final residual = 0, No Iterations 0
time step continuity errors : sum local = 7.37242e-07, global = 3.28558e-09, cumulative = -1.586e-05
rho max/min : 994.512 980.57
GAMG:  Solving for p, Initial residual = 0.00844944, Final residual = 5.1913e-08, No Iterations 10
diagonal:  Solving for rho, Initial residual = 0, Final residual = 0, No Iterations 0
time step continuity errors : sum local = 4.93519e-07, global = -1.62092e-09, cumulative = -1.58616e-05
rho max/min : 994.512 980.57
GAMG:  Solving for p, Initial residual = 0.00159046, Final residual = 6.71219e-08, No Iterations 7
diagonal:  Solving for rho, Initial residual = 0, Final residual = 0, No Iterations 0
time step continuity errors : sum local = 6.3843e-07, global = -1.70336e-09, cumulative = -1.58633e-05
rho max/min : 994.512 980.57
ExecutionTime = 9.61 s  ClockTime = 10 s

Time = 0.064

Courant Number mean: 1.62888 max: 4.95557
diagonal:  Solving for rho, Initial residual = 0, Final residual = 0, No Iterations 0
PIMPLE: iteration 1
DILUPBiCGStab:  Solving for Ux, Initial residual = 0.0013526, Final residual = 3.00861e-08, No Iterations 2
DILUPBiCGStab:  Solving for Uy, Initial residual = 0.00188028, Final residual = 1.02541e-09, No Iterations 3
DILUPBiCGStab:  Solving for Uz, Initial residual = 0.0421548, Final residual = 4.80017e-08, No Iterations 3
DILUPBiCGStab:  Solving for e, Initial residual = 0.00991963, Final residual = 5.163e-08, No Iterations 2
GAMG:  Solving for p, Initial residual = 0.0218953, Final residual = 8.07447e-08, No Iterations 10
diagonal:  Solving for rho, Initial residual = 0, Final residual = 0, No Iterations 0
time step continuity errors : sum local = 7.71666e-07, global = 3.34439e-09, cumulative = -1.58599e-05
rho max/min : 994.512 980.57
GAMG:  Solving for p, Initial residual = 0.00876274, Final residual = 5.49615e-08, No Iterations 10
diagonal:  Solving for rho, Initial residual = 0, Final residual = 0, No Iterations 0
time step continuity errors : sum local = 5.27323e-07, global = -2.49069e-09, cumulative = -1.58624e-05
rho max/min : 994.512 980.57
GAMG:  Solving for p, Initial residual = 0.00162415, Final residual = 7.30095e-08, No Iterations 7
diagonal:  Solving for rho, Initial residual = 0, Final residual = 0, No Iterations 0
time step continuity errors : sum local = 7.0059e-07, global = -1.14467e-10, cumulative = -1.58625e-05
rho max/min : 994.512 980.57
ExecutionTime = 9.95 s  ClockTime = 10 s

Time = 0.066

Courant Number mean: 1.63021 max: 4.95126
diagonal:  Solving for rho, Initial residual = 0, Final residual = 0, No Iterations 0
PIMPLE: iteration 1
DILUPBiCGStab:  Solving for Ux, Initial residual = 0.00138135, Final residual = 3.40211e-08, No Iterations 2
DILUPBiCGStab:  Solving for Uy, Initial residual = 0.00193372, Final residual = 1.21958e-09, No Iterations 3
DILUPBiCGStab:  Solving for Uz, Initial residual = 0.0425414, Final residual = 5.19439e-08, No Iterations 3
DILUPBiCGStab:  Solving for e, Initial residual = 0.00967365, Final residual = 5.46032e-08, No Iterations 2
GAMG:  Solving for p, Initial residual = 0.0224291, Final residual = 8.43499e-08, No Iterations 10
diagonal:  Solving for rho, Initial residual = 0, Final residual = 0, No Iterations 0
time step continuity errors : sum local = 8.12811e-07, global = 3.22906e-09, cumulative = -1.58593e-05
rho max/min : 994.512 980.57
GAMG:  Solving for p, Initial residual = 0.00917993, Final residual = 6.00021e-08, No Iterations 10
diagonal:  Solving for rho, Initial residual = 0, Final residual = 0, No Iterations 0
time step continuity errors : sum local = 5.80441e-07, global = -2.83231e-09, cumulative = -1.58621e-05
rho max/min : 994.512 980.57
GAMG:  Solving for p, Initial residual = 0.0016735, Final residual = 8.0272e-08, No Iterations 7
diagonal:  Solving for rho, Initial residual = 0, Final residual = 0, No Iterations 0
time step continuity errors : sum local = 7.76507e-07, global = 2.11384e-09, cumulative = -1.586e-05
rho max/min : 994.512 980.57
ExecutionTime = 10.25 s  ClockTime = 10 s

Time = 0.068

Courant Number mean: 1.63159 max: 4.94699
diagonal:  Solving for rho, Initial residual = 0, Final residual = 0, No Iterations 0
PIMPLE: iteration 1
DILUPBiCGStab:  Solving for Ux, Initial residual = 0.00141417, Final residual = 3.72197e-08, No Iterations 2
DILUPBiCGStab:  Solving for Uy, Initial residual = 0.00198248, Final residual = 3.80207e-08, No Iterations 2
DILUPBiCGStab:  Solving for Uz, Initial residual = 0.0428841, Final residual = 6.06435e-08, No Iterations 3
DILUPBiCGStab:  Solving for e, Initial residual = 0.00946722, Final residual = 5.7978e-08, No Iterations 2
GAMG:  Solving for p, Initial residual = 0.0228696, Final residual = 8.77928e-08, No Iterations 10
diagonal:  Solving for rho, Initial residual = 0, Final residual = 0, No Iterations 0
time step continuity errors : sum local = 8.52444e-07, global = 2.82084e-08, cumulative = -1.58318e-05
rho max/min : 994.512 980.57
GAMG:  Solving for p, Initial residual = 0.00952837, Final residual = 5.87125e-08, No Iterations 10
diagonal:  Solving for rho, Initial residual = 0, Final residual = 0, No Iterations 0
time step continuity errors : sum local = 5.7212e-07, global = -4.90618e-09, cumulative = -1.58367e-05
rho max/min : 994.512 980.57
GAMG:  Solving for p, Initial residual = 0.00169605, Final residual = 7.92107e-08, No Iterations 7
diagonal:  Solving for rho, Initial residual = 0, Final residual = 0, No Iterations 0
time step continuity errors : sum local = 7.71632e-07, global = 2.87878e-09, cumulative = -1.58339e-05
rho max/min : 994.512 980.57
ExecutionTime = 10.57 s  ClockTime = 11 s

Time = 0.07

Courant Number mean: 1.63303 max: 4.94292
diagonal:  Solving for rho, Initial residual = 0, Final residual = 0, No Iterations 0
PIMPLE: iteration 1
DILUPBiCGStab:  Solving for Ux, Initial residual = 0.00144579, Final residual = 4.2935e-08, No Iterations 2
DILUPBiCGStab:  Solving for Uy, Initial residual = 0.00202841, Final residual = 1.12041e-08, No Iterations 3
DILUPBiCGStab:  Solving for Uz, Initial residual = 0.0429519, Final residual = 5.25229e-08, No Iterations 3
DILUPBiCGStab:  Solving for e, Initial residual = 0.00925925, Final residual = 6.30564e-08, No Iterations 2
GAMG:  Solving for p, Initial residual = 0.0233545, Final residual = 4.92713e-08, No Iterations 11
diagonal:  Solving for rho, Initial residual = 0, Final residual = 0, No Iterations 0
time step continuity errors : sum local = 4.82036e-07, global = -8.5914e-10, cumulative = -1.58347e-05
rho max/min : 994.512 980.57
GAMG:  Solving for p, Initial residual = 0.00985143, Final residual = 6.19913e-08, No Iterations 10
diagonal:  Solving for rho, Initial residual = 0, Final residual = 0, No Iterations 0
time step continuity errors : sum local = 6.08863e-07, global = 5.61519e-09, cumulative = -1.58291e-05
rho max/min : 994.512 980.57
GAMG:  Solving for p, Initial residual = 0.00170391, Final residual = 5.89927e-08, No Iterations 7
diagonal:  Solving for rho, Initial residual = 0, Final residual = 0, No Iterations 0
time step continuity errors : sum local = 5.78796e-07, global = 3.13035e-09, cumulative = -1.5826e-05
rho max/min : 994.512 980.57
ExecutionTime = 10.92 s  ClockTime = 11 s

Time = 0.072

Courant Number mean: 1.6345 max: 4.9392
diagonal:  Solving for rho, Initial residual = 0, Final residual = 0, No Iterations 0
PIMPLE: iteration 1
DILUPBiCGStab:  Solving for Ux, Initial residual = 0.00148087, Final residual = 4.94696e-08, No Iterations 2
DILUPBiCGStab:  Solving for Uy, Initial residual = 0.00206946, Final residual = 4.9918e-09, No Iterations 3
DILUPBiCGStab:  Solving for Uz, Initial residual = 0.0428311, Final residual = 5.83467e-08, No Iterations 3
DILUPBiCGStab:  Solving for e, Initial residual = 0.00904936, Final residual = 6.93974e-08, No Iterations 2
GAMG:  Solving for p, Initial residual = 0.0240013, Final residual = 6.51442e-08, No Iterations 11
diagonal:  Solving for rho, Initial residual = 0, Final residual = 0, No Iterations 0
time step continuity errors : sum local = 6.42425e-07, global = 6.36686e-09, cumulative = -1.58196e-05
rho max/min : 994.512 980.57
GAMG:  Solving for p, Initial residual = 0.0101331, Final residual = 6.1287e-08, No Iterations 10
diagonal:  Solving for rho, Initial residual = 0, Final residual = 0, No Iterations 0
time step continuity errors : sum local = 6.06974e-07, global = -9.3625e-09, cumulative = -1.5829e-05
rho max/min : 994.512 980.57
GAMG:  Solving for p, Initial residual = 0.00172876, Final residual = 4.98066e-08, No Iterations 7
diagonal:  Solving for rho, Initial residual = 0, Final residual = 0, No Iterations 0
time step continuity errors : sum local = 4.92594e-07, global = 7.10327e-10, cumulative = -1.58283e-05
rho max/min : 994.512 980.57
ExecutionTime = 11.28 s  ClockTime = 11 s

Time = 0.074

Courant Number mean: 1.63602 max: 4.9356
diagonal:  Solving for rho, Initial residual = 0, Final residual = 0, No Iterations 0
PIMPLE: iteration 1
DILUPBiCGStab:  Solving for Ux, Initial residual = 0.00151339, Final residual = 5.59976e-08, No Iterations 2
DILUPBiCGStab:  Solving for Uy, Initial residual = 0.00211525, Final residual = 3.67177e-09, No Iterations 3
DILUPBiCGStab:  Solving for Uz, Initial residual = 0.0427769, Final residual = 7.26576e-08, No Iterations 3
DILUPBiCGStab:  Solving for e, Initial residual = 0.00885193, Final residual = 7.58222e-08, No Iterations 2
GAMG:  Solving for p, Initial residual = 0.0247221, Final residual = 7.58127e-08, No Iterations 11
diagonal:  Solving for rho, Initial residual = 0, Final residual = 0, No Iterations 0
time step continuity errors : sum local = 7.54006e-07, global = 7.8365e-09, cumulative = -1.58204e-05
rho max/min : 994.512 980.57
GAMG:  Solving for p, Initial residual = 0.0104487, Final residual = 8.787e-08, No Iterations 10
diagonal:  Solving for rho, Initial residual = 0, Final residual = 0, No Iterations 0
time step continuity errors : sum local = 8.77417e-07, global = 3.29725e-09, cumulative = -1.58171e-05
rho max/min : 994.512 980.57
GAMG:  Solving for p, Initial residual = 0.00176704, Final residual = 4.90441e-08, No Iterations 7
diagonal:  Solving for rho, Initial residual = 0, Final residual = 0, No Iterations 0
time step continuity errors : sum local = 4.89005e-07, global = 4.82203e-10, cumulative = -1.58166e-05
rho max/min : 994.512 980.57
ExecutionTime = 11.61 s  ClockTime = 12 s

Time = 0.076

Courant Number mean: 1.63756 max: 4.93218
diagonal:  Solving for rho, Initial residual = 0, Final residual = 0, No Iterations 0
PIMPLE: iteration 1
DILUPBiCGStab:  Solving for Ux, Initial residual = 0.00153653, Final residual = 9.75611e-08, No Iterations 2
DILUPBiCGStab:  Solving for Uy, Initial residual = 0.00216218, Final residual = 4.24807e-09, No Iterations 3
DILUPBiCGStab:  Solving for Uz, Initial residual = 0.0426673, Final residual = 9.32299e-08, No Iterations 3
DILUPBiCGStab:  Solving for e, Initial residual = 0.00865017, Final residual = 8.40834e-08, No Iterations 2
GAMG:  Solving for p, Initial residual = 0.0256633, Final residual = 8.22671e-08, No Iterations 11
diagonal:  Solving for rho, Initial residual = 0, Final residual = 0, No Iterations 0
time step continuity errors : sum local = 8.25081e-07, global = 7.95649e-09, cumulative = -1.58087e-05
rho max/min : 994.512 980.57
GAMG:  Solving for p, Initial residual = 0.0106574, Final residual = 9.30479e-08, No Iterations 10
diagonal:  Solving for rho, Initial residual = 0, Final residual = 0, No Iterations 0
time step continuity errors : sum local = 9.36438e-07, global = 3.51788e-09, cumulative = -1.58052e-05
rho max/min : 994.512 980.57
GAMG:  Solving for p, Initial residual = 0.0018059, Final residual = 4.40706e-08, No Iterations 7
diagonal:  Solving for rho, Initial residual = 0, Final residual = 0, No Iterations 0
time step continuity errors : sum local = 4.4285e-07, global = 2.00938e-09, cumulative = -1.58032e-05
rho max/min : 994.512 980.57
ExecutionTime = 11.89 s  ClockTime = 12 s

Time = 0.078

Courant Number mean: 1.63913 max: 4.92875
diagonal:  Solving for rho, Initial residual = 0, Final residual = 0, No Iterations 0
PIMPLE: iteration 1
DILUPBiCGStab:  Solving for Ux, Initial residual = 0.00155622, Final residual = 1.02155e-08, No Iterations 3
DILUPBiCGStab:  Solving for Uy, Initial residual = 0.0022056, Final residual = 9.99778e-09, No Iterations 3
DILUPBiCGStab:  Solving for Uz, Initial residual = 0.0423283, Final residual = 7.38228e-09, No Iterations 3
DILUPBiCGStab:  Solving for e, Initial residual = 0.00849216, Final residual = 9.48708e-08, No Iterations 2
GAMG:  Solving for p, Initial residual = 0.0264289, Final residual = 8.33339e-08, No Iterations 11
diagonal:  Solving for rho, Initial residual = 0, Final residual = 0, No Iterations 0
time step continuity errors : sum local = 8.42176e-07, global = 9.44898e-09, cumulative = -1.57937e-05
rho max/min : 994.512 980.57
GAMG:  Solving for p, Initial residual = 0.0109079, Final residual = 8.14115e-08, No Iterations 10
diagonal:  Solving for rho, Initial residual = 0, Final residual = 0, No Iterations 0
time step continuity errors : sum local = 8.25155e-07, global = 7.91248e-10, cumulative = -1.57929e-05
rho max/min : 994.512 980.57
GAMG:  Solving for p, Initial residual = 0.00183657, Final residual = 9.04065e-08, No Iterations 7
diagonal:  Solving for rho, Initial residual = 0, Final residual = 0, No Iterations 0
time step continuity errors : sum local = 9.15035e-07, global = 4.00469e-09, cumulative = -1.57889e-05
rho max/min : 994.512 980.57
ExecutionTime = 12.2 s  ClockTime = 12 s

Time = 0.08

Courant Number mean: 1.64073 max: 4.92456
diagonal:  Solving for rho, Initial residual = 0, Final residual = 0, No Iterations 0
PIMPLE: iteration 1
DILUPBiCGStab:  Solving for Ux, Initial residual = 0.0015794, Final residual = 2.01139e-08, No Iterations 3
DILUPBiCGStab:  Solving for Uy, Initial residual = 0.00223421, Final residual = 9.75204e-08, No Iterations 2
DILUPBiCGStab:  Solving for Uz, Initial residual = 0.0418476, Final residual = 1.137e-08, No Iterations 3
DILUPBiCGStab:  Solving for e, Initial residual = 0.00830289, Final residual = 7.24395e-09, No Iterations 3
GAMG:  Solving for p, Initial residual = 0.0272592, Final residual = 8.36725e-08, No Iterations 11
diagonal:  Solving for rho, Initial residual = 0, Final residual = 0, No Iterations 0
time step continuity errors : sum local = 8.50858e-07, global = 9.11082e-09, cumulative = -1.57798e-05
rho max/min : 994.512 980.57
GAMG:  Solving for p, Initial residual = 0.0112635, Final residual = 7.2106e-08, No Iterations 10
diagonal:  Solving for rho, Initial residual = 0, Final residual = 0, No Iterations 0
time step continuity errors : sum local = 7.3481e-07, global = -2.51145e-09, cumulative = -1.57823e-05
rho max/min : 994.512 980.57
GAMG:  Solving for p, Initial residual = 0.00186906, Final residual = 2.75724e-08, No Iterations 8
diagonal:  Solving for rho, Initial residual = 0, Final residual = 0, No Iterations 0
time step continuity errors : sum local = 2.8068e-07, global = 3.25001e-10, cumulative = -1.5782e-05
rho max/min : 994.512 980.57
ExecutionTime = 12.65 s  ClockTime = 13 s

Time = 0.082

Courant Number mean: 1.64236 max: 4.92121
diagonal:  Solving for rho, Initial residual = 0, Final residual = 0, No Iterations 0
PIMPLE: iteration 1
DILUPBiCGStab:  Solving for Ux, Initial residual = 0.00160696, Final residual = 6.14847e-08, No Iterations 3
DILUPBiCGStab:  Solving for Uy, Initial residual = 0.0022659, Final residual = 1.13147e-08, No Iterations 3
DILUPBiCGStab:  Solving for Uz, Initial residual = 0.0415278, Final residual = 1.60097e-08, No Iterations 3
DILUPBiCGStab:  Solving for e, Initial residual = 0.00815251, Final residual = 8.36501e-09, No Iterations 3
GAMG:  Solving for p, Initial residual = 0.0280448, Final residual = 8.74968e-08, No Iterations 11
diagonal:  Solving for rho, Initial residual = 0, Final residual = 0, No Iterations 0
time step continuity errors : sum local = 8.94434e-07, global = 8.34649e-09, cumulative = -1.57736e-05
rho max/min : 994.512 980.57
GAMG:  Solving for p, Initial residual = 0.011627, Final residual = 7.14001e-08, No Iterations 10
diagonal:  Solving for rho, Initial residual = 0, Final residual = 0, No Iterations 0
time step continuity errors : sum local = 7.31058e-07, global = 1.71543e-09, cumulative = -1.57719e-05
rho max/min : 994.512 980.57
GAMG:  Solving for p, Initial residual = 0.00190587, Final residual = 2.71807e-08, No Iterations 8
diagonal:  Solving for rho, Initial residual = 0, Final residual = 0, No Iterations 0
time step continuity errors : sum local = 2.78014e-07, global = -3.55863e-10, cumulative = -1.57723e-05
rho max/min : 994.512 980.57
ExecutionTime = 12.94 s  ClockTime = 13 s

Time = 0.084

Courant Number mean: 1.64406 max: 4.91874
diagonal:  Solving for rho, Initial residual = 0, Final residual = 0, No Iterations 0
PIMPLE: iteration 1
DILUPBiCGStab:  Solving for Ux, Initial residual = 0.00163805, Final residual = 1.77302e-08, No Iterations 3
DILUPBiCGStab:  Solving for Uy, Initial residual = 0.00228573, Final residual = 1.81623e-08, No Iterations 3
DILUPBiCGStab:  Solving for Uz, Initial residual = 0.0413281, Final residual = 1.80022e-08, No Iterations 3
DILUPBiCGStab:  Solving for e, Initial residual = 0.00799016, Final residual = 9.98242e-09, No Iterations 3
GAMG:  Solving for p, Initial residual = 0.0287918, Final residual = 9.19029e-08, No Iterations 11
diagonal:  Solving for rho, Initial residual = 0, Final residual = 0, No Iterations 0
time step continuity errors : sum local = 9.43649e-07, global = 1.07864e-08, cumulative = -1.57615e-05
rho max/min : 994.512 980.57
GAMG:  Solving for p, Initial residual = 0.0119471, Final residual = 9.32271e-08, No Iterations 10
diagonal:  Solving for rho, Initial residual = 0, Final residual = 0, No Iterations 0
time step continuity errors : sum local = 9.59114e-07, global = 3.6065e-09, cumulative = -1.57579e-05
rho max/min : 994.512 980.57
GAMG:  Solving for p, Initial residual = 0.00190368, Final residual = 2.93751e-08, No Iterations 8
diagonal:  Solving for rho, Initial residual = 0, Final residual = 0, No Iterations 0
time step continuity errors : sum local = 3.0181e-07, global = -7.0361e-11, cumulative = -1.5758e-05
rho max/min : 994.512 980.57
ExecutionTime = 13.25 s  ClockTime = 13 s

Time = 0.086

Courant Number mean: 1.64581 max: 4.91644
diagonal:  Solving for rho, Initial residual = 0, Final residual = 0, No Iterations 0
PIMPLE: iteration 1
DILUPBiCGStab:  Solving for Ux, Initial residual = 0.00166629, Final residual = 6.69479e-08, No Iterations 3
DILUPBiCGStab:  Solving for Uy, Initial residual = 0.00230789, Final residual = 2.29065e-08, No Iterations 3
DILUPBiCGStab:  Solving for Uz, Initial residual = 0.0412943, Final residual = 1.99876e-08, No Iterations 3
DILUPBiCGStab:  Solving for e, Initial residual = 0.00784276, Final residual = 1.18216e-08, No Iterations 3
GAMG:  Solving for p, Initial residual = 0.0292406, Final residual = 4.56886e-08, No Iterations 12
diagonal:  Solving for rho, Initial residual = 0, Final residual = 0, No Iterations 0
time step continuity errors : sum local = 4.714e-07, global = 4.48792e-09, cumulative = -1.57535e-05
rho max/min : 994.512 980.57
GAMG:  Solving for p, Initial residual = 0.0123226, Final residual = 4.97753e-08, No Iterations 11
diagonal:  Solving for rho, Initial residual = 0, Final residual = 0, No Iterations 0
time step continuity errors : sum local = 5.14829e-07, global = -1.46455e-09, cumulative = -1.57549e-05
rho max/min : 994.512 980.57
GAMG:  Solving for p, Initial residual = 0.00192239, Final residual = 3.42703e-08, No Iterations 8
diagonal:  Solving for rho, Initial residual = 0, Final residual = 0, No Iterations 0
time step continuity errors : sum local = 3.53932e-07, global = 3.94985e-10, cumulative = -1.57545e-05
rho max/min : 994.512 980.57
ExecutionTime = 13.55 s  ClockTime = 14 s

Time = 0.088

Courant Number mean: 1.64759 max: 4.91348
diagonal:  Solving for rho, Initial residual = 0, Final residual = 0, No Iterations 0
PIMPLE: iteration 1
DILUPBiCGStab:  Solving for Ux, Initial residual = 0.00169137, Final residual = 4.64778e-08, No Iterations 3
DILUPBiCGStab:  Solving for Uy, Initial residual = 0.00233608, Final residual = 3.39348e-08, No Iterations 3
DILUPBiCGStab:  Solving for Uz, Initial residual = 0.041122, Final residual = 3.127e-08, No Iterations 3
[...]
diagonal:  Solving for rho, Initial residual = 0, Final residual = 0, No Iterations 0
time step continuity errors : sum local = 1.18259e-06, global = 2.20467e-07, cumulative = -1.76228e-05
rho max/min : 994.675 980.57
GAMG:  Solving for p, Initial residual = 0.063385, Final residual = 7.57412e-08, No Iterations 13
diagonal:  Solving for rho, Initial residual = 0, Final residual = 0, No Iterations 0
time step continuity errors : sum local = 1.66685e-06, global = -4.80395e-07, cumulative = -1.81032e-05
rho max/min : 994.675 980.57
GAMG:  Solving for p, Initial residual = 0.00775142, Final residual = 3.21963e-08, No Iterations 9
diagonal:  Solving for rho, Initial residual = 0, Final residual = 0, No Iterations 0
time step continuity errors : sum local = 7.09119e-07, global = 1.26384e-08, cumulative = -1.80906e-05
rho max/min : 994.675 980.57
ExecutionTime = 85.97 s  ClockTime = 86 s

Time = 0.478

Courant Number mean: 1.80976 max: 4.87055
diagonal:  Solving for rho, Initial residual = 0, Final residual = 0, No Iterations 0
PIMPLE: iteration 1
DILUPBiCGStab:  Solving for Ux, Initial residual = 0.0123225, Final residual = 9.60376e-08, No Iterations 3
DILUPBiCGStab:  Solving for Uy, Initial residual = 0.0194308, Final residual = 7.73545e-08, No Iterations 4
DILUPBiCGStab:  Solving for Uz, Initial residual = 0.0832554, Final residual = 3.68147e-08, No Iterations 4
DILUPBiCGStab:  Solving for e, Initial residual = 0.0289811, Final residual = 6.74001e-08, No Iterations 4
GAMG:  Solving for p, Initial residual = 0.149349, Final residual = 5.2176e-08, No Iterations 13
diagonal:  Solving for rho, Initial residual = 0, Final residual = 0, No Iterations 0
time step continuity errors : sum local = 1.14294e-06, global = 9.03456e-08, cumulative = -1.80002e-05
rho max/min : 994.668 980.57
GAMG:  Solving for p, Initial residual = 0.0632307, Final residual = 5.58438e-08, No Iterations 13
diagonal:  Solving for rho, Initial residual = 0, Final residual = 0, No Iterations 0
time step continuity errors : sum local = 1.22361e-06, global = -2.76962e-07, cumulative = -1.82772e-05
rho max/min : 994.668 980.57
GAMG:  Solving for p, Initial residual = 0.00775151, Final residual = 4.08542e-08, No Iterations 8
diagonal:  Solving for rho, Initial residual = 0, Final residual = 0, No Iterations 0
time step continuity errors : sum local = 8.97316e-07, global = -1.00121e-08, cumulative = -1.82872e-05
rho max/min : 994.668 980.57
ExecutionTime = 86.28 s  ClockTime = 86 s

Time = 0.48

Courant Number mean: 1.80954 max: 4.87053
diagonal:  Solving for rho, Initial residual = 0, Final residual = 0, No Iterations 0
PIMPLE: iteration 1
DILUPBiCGStab:  Solving for Ux, Initial residual = 0.0122202, Final residual = 8.57433e-08, No Iterations 3
DILUPBiCGStab:  Solving for Uy, Initial residual = 0.0193543, Final residual = 6.25623e-08, No Iterations 4
DILUPBiCGStab:  Solving for Uz, Initial residual = 0.0835002, Final residual = 3.24725e-08, No Iterations 4
DILUPBiCGStab:  Solving for e, Initial residual = 0.0291555, Final residual = 6.36716e-08, No Iterations 4
GAMG:  Solving for p, Initial residual = 0.149219, Final residual = 4.75258e-08, No Iterations 13
diagonal:  Solving for rho, Initial residual = 0, Final residual = 0, No Iterations 0
time step continuity errors : sum local = 1.03728e-06, global = 5.40273e-08, cumulative = -1.82332e-05
rho max/min : 994.658 980.57
GAMG:  Solving for p, Initial residual = 0.0632659, Final residual = 3.87649e-08, No Iterations 13
diagonal:  Solving for rho, Initial residual = 0, Final residual = 0, No Iterations 0
time step continuity errors : sum local = 8.4538e-07, global = -1.0064e-07, cumulative = -1.83338e-05
rho max/min : 994.658 980.57
GAMG:  Solving for p, Initial residual = 0.00778672, Final residual = 6.41777e-08, No Iterations 8
diagonal:  Solving for rho, Initial residual = 0, Final residual = 0, No Iterations 0
time step continuity errors : sum local = 1.40523e-06, global = -2.67317e-07, cumulative = -1.86011e-05
rho max/min : 994.658 980.57
ExecutionTime = 86.71 s  ClockTime = 87 s

Time = 0.482

Courant Number mean: 1.80926 max: 4.8705
diagonal:  Solving for rho, Initial residual = 0, Final residual = 0, No Iterations 0
PIMPLE: iteration 1
DILUPBiCGStab:  Solving for Ux, Initial residual = 0.0121132, Final residual = 4.44121e-08, No Iterations 4
DILUPBiCGStab:  Solving for Uy, Initial residual = 0.0192708, Final residual = 5.177e-08, No Iterations 4
DILUPBiCGStab:  Solving for Uz, Initial residual = 0.0837118, Final residual = 2.74434e-08, No Iterations 4
DILUPBiCGStab:  Solving for e, Initial residual = 0.0292179, Final residual = 5.77952e-08, No Iterations 4
GAMG:  Solving for p, Initial residual = 0.148929, Final residual = 4.89204e-08, No Iterations 13
diagonal:  Solving for rho, Initial residual = 0, Final residual = 0, No Iterations 0
time step continuity errors : sum local = 1.06354e-06, global = 5.18336e-08, cumulative = -1.85493e-05
rho max/min : 994.654 980.57
GAMG:  Solving for p, Initial residual = 0.0632922, Final residual = 9.8087e-08, No Iterations 12
diagonal:  Solving for rho, Initial residual = 0, Final residual = 0, No Iterations 0
time step continuity errors : sum local = 2.12891e-06, global = 2.19961e-07, cumulative = -1.83293e-05
rho max/min : 994.654 980.57
GAMG:  Solving for p, Initial residual = 0.00783535, Final residual = 3.51885e-08, No Iterations 9
diagonal:  Solving for rho, Initial residual = 0, Final residual = 0, No Iterations 0
time step continuity errors : sum local = 7.6763e-07, global = 6.37071e-09, cumulative = -1.8323e-05
rho max/min : 994.654 980.57
ExecutionTime = 87.02 s  ClockTime = 87 s

Time = 0.484

Courant Number mean: 1.80891 max: 4.87047
diagonal:  Solving for rho, Initial residual = 0, Final residual = 0, No Iterations 0
PIMPLE: iteration 1
DILUPBiCGStab:  Solving for Ux, Initial residual = 0.0120046, Final residual = 1.34248e-09, No Iterations 5
DILUPBiCGStab:  Solving for Uy, Initial residual = 0.0192018, Final residual = 1.30569e-09, No Iterations 5
DILUPBiCGStab:  Solving for Uz, Initial residual = 0.083865, Final residual = 2.25771e-08, No Iterations 4
DILUPBiCGStab:  Solving for e, Initial residual = 0.0292731, Final residual = 4.89363e-08, No Iterations 4
GAMG:  Solving for p, Initial residual = 0.148957, Final residual = 5.12614e-08, No Iterations 13
diagonal:  Solving for rho, Initial residual = 0, Final residual = 0, No Iterations 0
time step continuity errors : sum local = 1.10931e-06, global = 4.97614e-08, cumulative = -1.82732e-05
rho max/min : 994.645 980.57
GAMG:  Solving for p, Initial residual = 0.063318, Final residual = 9.25658e-08, No Iterations 12
diagonal:  Solving for rho, Initial residual = 0, Final residual = 0, No Iterations 0
time step continuity errors : sum local = 1.99858e-06, global = 1.5683e-07, cumulative = -1.81164e-05
rho max/min : 994.645 980.57
GAMG:  Solving for p, Initial residual = 0.00787824, Final residual = 4.34358e-08, No Iterations 9
diagonal:  Solving for rho, Initial residual = 0, Final residual = 0, No Iterations 0
time step continuity errors : sum local = 9.43189e-07, global = 1.42063e-09, cumulative = -1.8115e-05
rho max/min : 994.645 980.57
ExecutionTime = 87.35 s  ClockTime = 87 s

Time = 0.486

Courant Number mean: 1.80862 max: 4.87043
diagonal:  Solving for rho, Initial residual = 0, Final residual = 0, No Iterations 0
PIMPLE: iteration 1
DILUPBiCGStab:  Solving for Ux, Initial residual = 0.0118951, Final residual = 4.91158e-08, No Iterations 3
DILUPBiCGStab:  Solving for Uy, Initial residual = 0.0191673, Final residual = 4.95059e-08, No Iterations 4
DILUPBiCGStab:  Solving for Uz, Initial residual = 0.0839526, Final residual = 1.77135e-08, No Iterations 4
DILUPBiCGStab:  Solving for e, Initial residual = 0.0294691, Final residual = 4.45726e-08, No Iterations 4
GAMG:  Solving for p, Initial residual = 0.149134, Final residual = 5.32176e-08, No Iterations 13
diagonal:  Solving for rho, Initial residual = 0, Final residual = 0, No Iterations 0
time step continuity errors : sum local = 1.14552e-06, global = 4.60044e-08, cumulative = -1.8069e-05
rho max/min : 994.634 980.57
GAMG:  Solving for p, Initial residual = 0.0633927, Final residual = 9.00016e-08, No Iterations 12
diagonal:  Solving for rho, Initial residual = 0, Final residual = 0, No Iterations 0
time step continuity errors : sum local = 1.93275e-06, global = 1.20409e-07, cumulative = -1.79485e-05
rho max/min : 994.634 980.57
GAMG:  Solving for p, Initial residual = 0.00790919, Final residual = 4.31067e-08, No Iterations 9
diagonal:  Solving for rho, Initial residual = 0, Final residual = 0, No Iterations 0
time step continuity errors : sum local = 9.30841e-07, global = -2.4134e-09, cumulative = -1.7951e-05
rho max/min : 994.634 980.57
ExecutionTime = 87.66 s  ClockTime = 88 s

Time = 0.488

Courant Number mean: 1.80829 max: 4.8704
diagonal:  Solving for rho, Initial residual = 0, Final residual = 0, No Iterations 0
PIMPLE: iteration 1
DILUPBiCGStab:  Solving for Ux, Initial residual = 0.0117929, Final residual = 4.74546e-08, No Iterations 3
DILUPBiCGStab:  Solving for Uy, Initial residual = 0.0191581, Final residual = 4.37588e-08, No Iterations 4
DILUPBiCGStab:  Solving for Uz, Initial residual = 0.0838787, Final residual = 9.62759e-08, No Iterations 4
DILUPBiCGStab:  Solving for e, Initial residual = 0.0295618, Final residual = 4.10694e-08, No Iterations 4
GAMG:  Solving for p, Initial residual = 0.149028, Final residual = 5.37458e-08, No Iterations 13
diagonal:  Solving for rho, Initial residual = 0, Final residual = 0, No Iterations 0
time step continuity errors : sum local = 1.15e-06, global = 4.10363e-08, cumulative = -1.79099e-05
rho max/min : 994.625 980.57
GAMG:  Solving for p, Initial residual = 0.0632987, Final residual = 8.81302e-08, No Iterations 12
diagonal:  Solving for rho, Initial residual = 0, Final residual = 0, No Iterations 0
time step continuity errors : sum local = 1.88126e-06, global = 1.00014e-07, cumulative = -1.78099e-05
rho max/min : 994.625 980.57
GAMG:  Solving for p, Initial residual = 0.0079026, Final residual = 3.81553e-08, No Iterations 9
diagonal:  Solving for rho, Initial residual = 0, Final residual = 0, No Iterations 0
time step continuity errors : sum local = 8.19131e-07, global = -5.28979e-09, cumulative = -1.78152e-05
rho max/min : 994.625 980.57
ExecutionTime = 87.97 s  ClockTime = 88 s

Time = 0.49

Courant Number mean: 1.80797 max: 4.87035
diagonal:  Solving for rho, Initial residual = 0, Final residual = 0, No Iterations 0
PIMPLE: iteration 1
DILUPBiCGStab:  Solving for Ux, Initial residual = 0.0116933, Final residual = 5.59238e-08, No Iterations 3
DILUPBiCGStab:  Solving for Uy, Initial residual = 0.0191372, Final residual = 4.23284e-08, No Iterations 4
DILUPBiCGStab:  Solving for Uz, Initial residual = 0.0837004, Final residual = 7.84555e-08, No Iterations 4
DILUPBiCGStab:  Solving for e, Initial residual = 0.0296026, Final residual = 3.84525e-08, No Iterations 4
GAMG:  Solving for p, Initial residual = 0.148904, Final residual = 5.33892e-08, No Iterations 13
diagonal:  Solving for rho, Initial residual = 0, Final residual = 0, No Iterations 0
time step continuity errors : sum local = 1.13465e-06, global = 3.87379e-08, cumulative = -1.77765e-05
rho max/min : 994.624 980.57
GAMG:  Solving for p, Initial residual = 0.0631315, Final residual = 8.74051e-08, No Iterations 12
diagonal:  Solving for rho, Initial residual = 0, Final residual = 0, No Iterations 0
time step continuity errors : sum local = 1.85317e-06, global = 9.5697e-08, cumulative = -1.76808e-05
rho max/min : 994.624 980.57
GAMG:  Solving for p, Initial residual = 0.00791957, Final residual = 9.08726e-08, No Iterations 8
diagonal:  Solving for rho, Initial residual = 0, Final residual = 0, No Iterations 0
time step continuity errors : sum local = 1.93777e-06, global = 3.17791e-08, cumulative = -1.7649e-05
rho max/min : 994.624 980.57
ExecutionTime = 88.28 s  ClockTime = 88 s

Time = 0.492

Courant Number mean: 1.80774 max: 4.87031
diagonal:  Solving for rho, Initial residual = 0, Final residual = 0, No Iterations 0
PIMPLE: iteration 1
DILUPBiCGStab:  Solving for Ux, Initial residual = 0.0116058, Final residual = 9.63517e-08, No Iterations 3
DILUPBiCGStab:  Solving for Uy, Initial residual = 0.019091, Final residual = 4.25563e-08, No Iterations 4
DILUPBiCGStab:  Solving for Uz, Initial residual = 0.0834148, Final residual = 6.58212e-08, No Iterations 4
DILUPBiCGStab:  Solving for e, Initial residual = 0.029543, Final residual = 3.37611e-08, No Iterations 4
GAMG:  Solving for p, Initial residual = 0.148939, Final residual = 5.28222e-08, No Iterations 13
diagonal:  Solving for rho, Initial residual = 0, Final residual = 0, No Iterations 0
time step continuity errors : sum local = 1.11464e-06, global = 3.93934e-08, cumulative = -1.76096e-05
rho max/min : 994.621 980.57
GAMG:  Solving for p, Initial residual = 0.0627583, Final residual = 8.70322e-08, No Iterations 12
diagonal:  Solving for rho, Initial residual = 0, Final residual = 0, No Iterations 0
time step continuity errors : sum local = 1.83226e-06, global = 1.02435e-07, cumulative = -1.75072e-05
rho max/min : 994.621 980.57
GAMG:  Solving for p, Initial residual = 0.00793619, Final residual = 8.10422e-08, No Iterations 8
diagonal:  Solving for rho, Initial residual = 0, Final residual = 0, No Iterations 0
time step continuity errors : sum local = 1.71476e-06, global = 5.28447e-08, cumulative = -1.74543e-05
rho max/min : 994.621 980.57
ExecutionTime = 88.6 s  ClockTime = 89 s

Time = 0.494

Courant Number mean: 1.80756 max: 4.87025
diagonal:  Solving for rho, Initial residual = 0, Final residual = 0, No Iterations 0
PIMPLE: iteration 1
DILUPBiCGStab:  Solving for Ux, Initial residual = 0.0115247, Final residual = 7.91269e-08, No Iterations 4
DILUPBiCGStab:  Solving for Uy, Initial residual = 0.0190113, Final residual = 3.45939e-08, No Iterations 4
DILUPBiCGStab:  Solving for Uz, Initial residual = 0.0829059, Final residual = 5.75584e-08, No Iterations 4
DILUPBiCGStab:  Solving for e, Initial residual = 0.0294626, Final residual = 2.86033e-08, No Iterations 4
GAMG:  Solving for p, Initial residual = 0.148638, Final residual = 5.11625e-08, No Iterations 13
diagonal:  Solving for rho, Initial residual = 0, Final residual = 0, No Iterations 0
time step continuity errors : sum local = 1.07133e-06, global = 4.07928e-08, cumulative = -1.74135e-05
rho max/min : 994.616 980.57
GAMG:  Solving for p, Initial residual = 0.0624947, Final residual = 8.26103e-08, No Iterations 12
diagonal:  Solving for rho, Initial residual = 0, Final residual = 0, No Iterations 0
time step continuity errors : sum local = 1.72709e-06, global = 1.03275e-07, cumulative = -1.73102e-05
rho max/min : 994.616 980.57
GAMG:  Solving for p, Initial residual = 0.00789663, Final residual = 6.42149e-08, No Iterations 8
diagonal:  Solving for rho, Initial residual = 0, Final residual = 0, No Iterations 0
time step continuity errors : sum local = 1.34867e-06, global = 5.72906e-08, cumulative = -1.72529e-05
rho max/min : 994.616 980.57
ExecutionTime = 88.9 s  ClockTime = 89 s

Time = 0.496

Courant Number mean: 1.80752 max: 4.8702
diagonal:  Solving for rho, Initial residual = 0, Final residual = 0, No Iterations 0
PIMPLE: iteration 1
DILUPBiCGStab:  Solving for Ux, Initial residual = 0.0114679, Final residual = 5.68729e-08, No Iterations 3
DILUPBiCGStab:  Solving for Uy, Initial residual = 0.0188871, Final residual = 8.73343e-08, No Iterations 4
DILUPBiCGStab:  Solving for Uz, Initial residual = 0.082276, Final residual = 5.51882e-08, No Iterations 4
DILUPBiCGStab:  Solving for e, Initial residual = 0.0294767, Final residual = 2.39197e-08, No Iterations 4
GAMG:  Solving for p, Initial residual = 0.148296, Final residual = 4.66274e-08, No Iterations 13
diagonal:  Solving for rho, Initial residual = 0, Final residual = 0, No Iterations 0
time step continuity errors : sum local = 9.68956e-07, global = 3.77309e-08, cumulative = -1.72152e-05
rho max/min : 994.61 980.57
GAMG:  Solving for p, Initial residual = 0.0621222, Final residual = 7.38713e-08, No Iterations 12
diagonal:  Solving for rho, Initial residual = 0, Final residual = 0, No Iterations 0
time step continuity errors : sum local = 1.53326e-06, global = 9.01143e-08, cumulative = -1.71251e-05
rho max/min : 994.61 980.57
GAMG:  Solving for p, Initial residual = 0.0078626, Final residual = 3.30777e-08, No Iterations 8
diagonal:  Solving for rho, Initial residual = 0, Final residual = 0, No Iterations 0
time step continuity errors : sum local = 6.88945e-07, global = 2.13595e-08, cumulative = -1.71037e-05
rho max/min : 994.61 980.57
ExecutionTime = 89.21 s  ClockTime = 89 s

Time = 0.498

Courant Number mean: 1.80755 max: 4.87014
diagonal:  Solving for rho, Initial residual = 0, Final residual = 0, No Iterations 0
PIMPLE: iteration 1
DILUPBiCGStab:  Solving for Ux, Initial residual = 0.0114157, Final residual = 3.20562e-08, No Iterations 3
DILUPBiCGStab:  Solving for Uy, Initial residual = 0.0187256, Final residual = 2.09925e-10, No Iterations 5
DILUPBiCGStab:  Solving for Uz, Initial residual = 0.0816264, Final residual = 5.27621e-08, No Iterations 4
DILUPBiCGStab:  Solving for e, Initial residual = 0.0294641, Final residual = 2.05808e-08, No Iterations 4
GAMG:  Solving for p, Initial residual = 0.147288, Final residual = 3.90682e-08, No Iterations 13
diagonal:  Solving for rho, Initial residual = 0, Final residual = 0, No Iterations 0
time step continuity errors : sum local = 8.05609e-07, global = 2.90604e-08, cumulative = -1.70747e-05
rho max/min : 994.607 980.57
GAMG:  Solving for p, Initial residual = 0.0614897, Final residual = 9.78549e-08, No Iterations 11
diagonal:  Solving for rho, Initial residual = 0, Final residual = 0, No Iterations 0
time step continuity errors : sum local = 2.01834e-06, global = -5.73907e-08, cumulative = -1.71321e-05
rho max/min : 994.607 980.57
GAMG:  Solving for p, Initial residual = 0.00775693, Final residual = 8.89547e-08, No Iterations 7
diagonal:  Solving for rho, Initial residual = 0, Final residual = 0, No Iterations 0
time step continuity errors : sum local = 1.8403e-06, global = 6.62631e-08, cumulative = -1.70658e-05
rho max/min : 994.607 980.57
ExecutionTime = 89.51 s  ClockTime = 90 s

Time = 0.5

Courant Number mean: 1.80768 max: 4.87008
diagonal:  Solving for rho, Initial residual = 0, Final residual = 0, No Iterations 0
PIMPLE: iteration 1
DILUPBiCGStab:  Solving for Ux, Initial residual = 0.011376, Final residual = 2.90259e-08, No Iterations 3
DILUPBiCGStab:  Solving for Uy, Initial residual = 0.0185399, Final residual = 1.82097e-10, No Iterations 5
DILUPBiCGStab:  Solving for Uz, Initial residual = 0.0810037, Final residual = 5.67451e-08, No Iterations 4
DILUPBiCGStab:  Solving for e, Initial residual = 0.0293639, Final residual = 1.79274e-08, No Iterations 4
GAMG:  Solving for p, Initial residual = 0.14534, Final residual = 9.83101e-08, No Iterations 12
diagonal:  Solving for rho, Initial residual = 0, Final residual = 0, No Iterations 0
time step continuity errors : sum local = 2.01715e-06, global = -8.81822e-08, cumulative = -1.7154e-05
rho max/min : 994.605 980.57
GAMG:  Solving for p, Initial residual = 0.0607463, Final residual = 7.34606e-08, No Iterations 11
diagonal:  Solving for rho, Initial residual = 0, Final residual = 0, No Iterations 0
time step continuity errors : sum local = 1.51144e-06, global = -2.82487e-08, cumulative = -1.71822e-05
rho max/min : 994.605 980.57
GAMG:  Solving for p, Initial residual = 0.0076443, Final residual = 5.78805e-08, No Iterations 8
diagonal:  Solving for rho, Initial residual = 0, Final residual = 0, No Iterations 0
time step continuity errors : sum local = 1.19287e-06, global = -6.07275e-09, cumulative = -1.71883e-05
rho max/min : 994.605 980.57
ExecutionTime = 89.94 s  ClockTime = 90 s

End

Finalising parallel run
