
//   run_parallel_rhoCfdemSolverPimpleScalar_packedBedTemp_CFDDEM   //

/home/eadaymo/CFDEM/eadaymo-KIT-PUBLIC-5.x/run/tutorials/rhoCfdemSolverPimpleScalar/packedBedTemp/CFD

/*---------------------------------------------------------------------------*\
| =========                 |                                                 |
| \\      /  F ield         | OpenFOAM: The Open Source CFD Toolbox           |
|  \\    /   O peration     | Version:  5.x                                   |
|   \\  /    A nd           | Web:      www.OpenFOAM.org                      |
|    \\/     M anipulation  |                                                 |
\*---------------------------------------------------------------------------*/
Build  : 5.x-7f7d351b741b
Exec   : rhoCfdemSolverPimpleScalar -parallel
Date   : Oct 09 2018
Time   : 09:28:28
Host   : "langmuir"
PID    : 17194
I/O    : uncollated
Case   : /home/eadaymo/CFDEM/eadaymo-KIT-PUBLIC-5.x/run/tutorials/rhoCfdemSolverPimpleScalar/packedBedTemp/CFD
nProcs : 2
Slaves : 1("langmuir.17195")
Pstream initialized with:
    floatTransfer      : 0
    nProcsSimpleSum    : 0
    commsType          : nonBlocking
    polling iterations : 0
sigFpe : Enabling floating point exception trapping (FOAM_SIGFPE).
fileModificationChecking : Monitoring run-time modified files using timeStampMaster (fileModificationSkew 10)
allowSystemOperations : Allowing user-supplied system call operations

// * * * * * * * * * * * * * * * * * * * * * * * * * * * * * * * * * * * * * //
Create time

Create mesh for time = 0


PIMPLE: Operating solver in PISO mode

Reading thermophysical properties

Selecting thermodynamics package 
{
    type            heRhoThermo;
    mixture         pureMixture;
    transport       const;
    thermo          hConst;
    equationOfState rhoConst;
    specie          specie;
    energy          sensibleEnthalpy;
}

Reading physical velocity field U
Note: only if voidfraction at boundary is 1, U is superficial velocity!!!


Reading momentum exchange field Ksl


Reading voidfraction field voidfraction = (Vgas/Vparticle)

Reading particle velocity field Us


Creating Temp field


Creating fluid-particle heat flux field

Reading field alphat

Reading/calculating face flux field phi

Generating interstitial face flux field phiByVoidfraction

Creating turbulence model

Selecting turbulence model type RAS
Selecting RAS turbulence model kEpsilon
RAS
{
    RASModel        kEpsilon;
    turbulence      on;
    printCoeffs     on;
    Cmu             0.09;
    C1              1.44;
    C2              1.92;
    C3              0;
    sigmak          1;
    sigmaEps        1.3;
}

Creating field dpdt

Creating field DpDt

Creating field kinetic energy K

No MRF models present

No finite volume options present


Reading g
Selecting locateModel engine
Selecting dataExchangeModel twoWayMPI
Starting up LIGGGHTS for first time execution
Executing input script '../DEM/in.liggghts_run'
LIGGGHTS (Version LIGGGHTS-PUBLIC 3.8.0, compiled 2018-05-12-08:38:37 by eadaymo, git commit unknown)
log             ../DEM/log.liggghts
thermo_log      ../DEM/post/thermo.txt

#######################################################
# variables                                           #
#######################################################
variable r0 equal 0.011
#######################################################

# read packed bed and calc convective heat transfer
atom_style      granular
atom_modify     map array
boundary        m m m
newton          off

communicate     single vel yes

units           si
processors      1 1 2

# read the restart file
read_restart    ../DEM/post/restart/liggghts.restart
Reading restart file ...
WARNING: Restart file version does not match LIGGGHTS version (../read_restart.cpp:507)
   --> restart file = Version LIGGGHTS-PUBLIC 3.8.0, compiled 2018-05-12-08:33:06 by eadaymo, git commit unknown
   --> LIGGGHTS = Version LIGGGHTS-PUBLIC 3.8.0, compiled 2018-05-12-08:38:37 by eadaymo, git commit unknown
version 3 8
version 3 8
  orthogonal box = (0 0 0) to (0.1 0.1 1.1)
  1 by 1 by 2 MPI processor grid
  1005 atoms

neighbor        ${r0} bin
neighbor        0.011 bin
neigh_modify    delay 0 binsize 0.01


# Material properties required for granular pair styles

fix         m1 all property/global youngsModulus peratomtype 5.e6
fix         m2 all property/global poissonsRatio peratomtype 0.45
fix         m3 all property/global coefficientRestitution peratomtypepair 1 0.3
fix         m4 all property/global coefficientFriction peratomtypepair 1 0.5

# pair style
pair_style  gran model hertz tangential history
pair_coeff  * *

# timestep, gravity
timestep    0.00001
fix         gravi all gravity 9.81 vector 0. 0. -1.

# walls
fix     xwalls1 all wall/gran model hertz tangential history primitive type 1 xplane 0.0
Resetting global state of Fix history_xwalls1 Style property/atom from restart file info
Resetting per-atom state of Fix history_xwalls1 Style property/atom from restart file info
fix     xwalls2 all wall/gran model hertz tangential history primitive type 1 xplane 0.1
Resetting global state of Fix history_xwalls2 Style property/atom from restart file info
Resetting per-atom state of Fix history_xwalls2 Style property/atom from restart file info
fix     ywalls1 all wall/gran model hertz tangential history primitive type 1 yplane 0.0
Resetting global state of Fix history_ywalls1 Style property/atom from restart file info
Resetting per-atom state of Fix history_ywalls1 Style property/atom from restart file info
fix     ywalls2 all wall/gran model hertz tangential history primitive type 1 yplane 0.1
Resetting global state of Fix history_ywalls2 Style property/atom from restart file info
Resetting per-atom state of Fix history_ywalls2 Style property/atom from restart file info
fix     zwalls1 all wall/gran model hertz tangential history primitive type 1 zplane 0.0
Resetting global state of Fix history_zwalls1 Style property/atom from restart file info
Resetting per-atom state of Fix history_zwalls1 Style property/atom from restart file info
fix     zwalls2 all wall/gran model hertz tangential history primitive type 1 zplane 1.1
Resetting global state of Fix history_zwalls2 Style property/atom from restart file info
Resetting per-atom state of Fix history_zwalls2 Style property/atom from restart file info

# cfd coupling
fix         cfd all couple/cfd couple_every 100 mpi
couple_every as specified in LIGGGHTS is overriden by calling external program (../fix_cfd_coupling.cpp:114)
fix         cfd2 all couple/cfd/force


# heat transfer
fix         ftco all property/global thermalConductivity peratomtype 5. # lambda in [W/(K*m)]
fix         ftca all property/global thermalCapacity peratomtype 0.1    # cp in [J/(kg*K)]
fix         cfd3 all couple/cfd/convection T0 600
Resetting global state of Fix Temp Style property/atom from restart file info
Resetting per-atom state of Fix Temp Style property/atom from restart file info
Resetting global state of Fix heatFlux Style property/atom from restart file info
Resetting per-atom state of Fix heatFlux Style property/atom from restart file info
Resetting global state of Fix heatSource Style property/atom from restart file info
Resetting per-atom state of Fix heatSource Style property/atom from restart file info
fix         heattransfer all heat/gran initial_temperature 600.

# set particle temperature for the bed
run         0
Resetting global state of Fix contacthistory Style contacthistory from restart file info
Resetting per-atom state of Fix contacthistory Style contacthistory from restart file info
Setting up run at Tue Oct  9 09:28:28 2018

Memory usage per processor = 9.13458 Mbytes
    Step    Atoms         KinEng            CPU         Volume 
  150001     1005  2.3338009e-06              0          0.011 
Loop time of 2.48151e-06 on 2 procs for 0 steps with 1005 atoms, finish time Tue Oct  9 09:28:28 2018


Pair  time (%) = 0 (0)
Neigh time (%) = 0 (0)
Comm  time (%) = 0 (0)
Outpt time (%) = 0 (0)
Other time (%) = 2.48151e-06 (100)

Nlocal:    502.5 ave 547 max 458 min
Histogram: 1 0 0 0 0 0 0 0 0 1
Nghost:    32 ave 34 max 30 min
Histogram: 1 0 0 0 0 0 0 0 0 1
Neighs:    2842 ave 3107 max 2577 min
Histogram: 1 0 0 0 0 0 0 0 0 1

Total # of neighbors = 5684
Ave neighs/atom = 5.65572
Neighbor list builds = 0
Dangerous builds = 0
region      total block INF INF INF INF INF INF units box
set         region total property/atom Temp 600.
Setting atom values ...
  1005 settings made for property/atom

# apply nve integration to all particles that are inserted as single particles
fix         integr all nve/sphere

# output settings, include total thermal energy
compute         rke all erotate/sphere
thermo_style    custom step atoms ke c_rke f_heattransfer vol
thermo          1000
thermo_modify   lost ignore norm no
compute_modify  thermo_temp dynamic yes
WARNING: Changing thermo_temp compute object. This object is deprecated and will be removed in the future. (../compute.cpp:161)

dump        dmp all custom 20000 ../DEM/post/dump*.liggghts_run id type x y z ix iy iz vx vy vz fx fy fz omegax omegay omegaz radius f_Temp[0] f_heatFlux[0]

run         0
Setting up run at Tue Oct  9 09:28:28 2018

Memory usage per processor = 9.13486 Mbytes
    Step    Atoms         KinEng            rke       heattran         Volume 
  150001     1005  2.3338009e-06    5.06343e-06      840.47342          0.011 
Loop time of 8.05536e-07 on 2 procs for 0 steps with 1005 atoms, finish time Tue Oct  9 09:28:28 2018


Pair  time (%) = 0 (0)
Neigh time (%) = 0 (0)
Comm  time (%) = 0 (0)
Outpt time (%) = 0 (0)
Other time (%) = 8.05536e-07 (100)

Nlocal:    502.5 ave 547 max 458 min
Histogram: 1 0 0 0 0 0 0 0 0 1
Nghost:    32 ave 34 max 30 min
Histogram: 1 0 0 0 0 0 0 0 0 1
Neighs:    2842 ave 3107 max 2577 min
Histogram: 1 0 0 0 0 0 0 0 0 1

Total # of neighbors = 5684
Ave neighs/atom = 5.65572
Neighbor list builds = 0
Dangerous builds = 0
Selecting IOModel basicIO
Selecting probeModel off
Selecting voidFractionModel divided
Selecting averagingModel dense
Selecting clockModel off
start clock measurement at t >0.01
Selecting smoothingModel off
Selecting meshMotionModel noMeshMotion

CFDEMcoupling version: cfdem-3.8.1
, compatible to LIGGGHTS version: 3.8.0
, compatible to OF version and build: 5.x-commit-538044ac05c4672b37c7df607dca1116fa88df88

You are currently using:
OF version: 5.x
OF build: 5.x-7f7d351b741b
CFDEM build: 

cg is set to: 1
LIGGGHTS hosts 1 atom types.
If BC are important, please provide volScalarFields -imp/expParticleForces-
ignoring ddt(voidfraction)
Selecting momCoupleModel implicitCouple

implicit momentum exchange field calculate if alphaP larger than : 1
Selecting forceModel KochHillDrag
 Selecting forceSubModel ImEx
 reading switches:
  looking for treatForceExplicit ...  not found in dict, using default. treatForceExplicit = false
  looking for implForceDEM ...  not found in dict, using default. implForceDEM = false
  looking for verbose ...  not found in dict, using default. verbose = false
  looking for interpolation ...  not found in dict, using default. interpolation = false
  looking for implForceDEMaccumulated ...  not found in dict, using default. implForceDEMaccumulated = false
  looking for scalarViscosity ...  not found in dict, using default. scalarViscosity = false

Selecting forceModel LaEuScalarTemp
 Selecting forceSubModel ImEx
 reading switches:
  looking for verbose ...  not found in dict, using default. verbose = false
  looking for interpolation ...  not found in dict, using default. interpolation = false
  looking for scalarViscosity ...  not found in dict, using default. scalarViscosity = false

Selecting forceModel Archimedes
 Selecting forceSubModel ImEx
 reading switches:
  looking for verbose ...  not found in dict, using default. verbose = false

Selecting liggghtsCommandModel runLiggghts ,provide dicts, numbered from 0 to n
Selecting liggghtsCommandModel execute ,provide dicts, numbered from 0 to n
liggghtsCommand set region total property/atom Temp 600.000000 
solving volume averaged Navier Stokes equations of type B


Starting time loop

--> FOAM Warning : 
    From function void Foam::timeControl::read(const Foam::dictionary&)
    in file db/functionObjects/timeControl/timeControl.C at line 89
    Reading "/home/eadaymo/CFDEM/eadaymo-KIT-PUBLIC-5.x/run/tutorials/rhoCfdemSolverPimpleScalar/packedBedTemp/CFD/system/controlDict.functions.probes" from line 61 to line 77
    Using deprecated 'outputControl'
    Please use 'writeControl' with 'writeInterval'
--> FOAM Warning : 
    From function void Foam::timeControl::read(const Foam::dictionary&)
    in file db/functionObjects/timeControl/timeControl.C at line 89
    Reading "/home/eadaymo/CFDEM/eadaymo-KIT-PUBLIC-5.x/run/tutorials/rhoCfdemSolverPimpleScalar/packedBedTemp/CFD/system/controlDict.functions.volFlow_inlet" from line 82 to line 95
    Using deprecated 'outputControl'
    Please use 'writeControl' with 'writeInterval'
surfaceFieldValue volFlow_inlet:
    total faces  = 4
    total area   = 0.01


--> FOAM Warning : 
    From function void Foam::timeControl::read(const Foam::dictionary&)
    in file db/functionObjects/timeControl/timeControl.C at line 89
    Reading "/home/eadaymo/CFDEM/eadaymo-KIT-PUBLIC-5.x/run/tutorials/rhoCfdemSolverPimpleScalar/packedBedTemp/CFD/system/controlDict.functions.volFlow_outlet" from line 100 to line 113
    Using deprecated 'outputControl'
    Please use 'writeControl' with 'writeInterval'
surfaceFieldValue volFlow_outlet:
    total faces  = 4
    total area   = 0.01


--> FOAM Warning : 
    From function void Foam::timeControl::read(const Foam::dictionary&)
    in file db/functionObjects/timeControl/timeControl.C at line 89
    Reading "/home/eadaymo/CFDEM/eadaymo-KIT-PUBLIC-5.x/run/tutorials/rhoCfdemSolverPimpleScalar/packedBedTemp/CFD/system/controlDict.functions.volFlow_wall" from line 118 to line 131
    Using deprecated 'outputControl'
    Please use 'writeControl' with 'writeInterval'
surfaceFieldValue volFlow_wall:
    total faces  = 264
    total area   = 0.8


Time = 0.005

Courant Number mean: 0.00133125 max: 0.0412913

 Coupling...
Starting up LIGGGHTS
Executing command: 'run 500    '
run 500    
Setting up run at Tue Oct  9 09:28:28 2018

Memory usage per processor = 9.13486 Mbytes
    Step    Atoms         KinEng            rke       heattran         Volume 
  150001     1005  2.3338009e-06    5.06343e-06      840.47342          0.011 
CFD Coupling established at step 150100
CFD Coupling established at step 150200
CFD Coupling established at step 150300
CFD Coupling established at step 150400
CFD Coupling established at step 150500
  150501     1005  2.4508543e-06  5.7530481e-06      840.47342          0.011 
Loop time of 0.144432 on 2 procs for 500 steps with 1005 atoms, finish time Tue Oct  9 09:28:28 2018


Pair  time (%) = 0.0772062 (53.4551)
Neigh time (%) = 0 (0)
Comm  time (%) = 0.0182177 (12.6134)
Outpt time (%) = 2.79304e-05 (0.0193381)
Other time (%) = 0.04898 (33.9122)

Nlocal:    502.5 ave 547 max 458 min
Histogram: 1 0 0 0 0 0 0 0 0 1
Nghost:    32 ave 34 max 30 min
Histogram: 1 0 0 0 0 0 0 0 0 1
Neighs:    2842 ave 3107 max 2577 min
Histogram: 1 0 0 0 0 0 0 0 0 1

Total # of neighbors = 5684
Ave neighs/atom = 5.65572
Neighbor list builds = 0
Dangerous builds = 0
Executing command: 'set region total property/atom Temp 600.000000 '
set region total property/atom Temp 600.000000 
Setting atom values ...
  1005 settings made for property/atom
LIGGGHTS finished

 timeStepFraction() = 1
update Ksl.internalField()
DILUPBiCGStab:  Solving for Temp, Initial residual = 0.619277, Final residual = 1.43583e-10, No Iterations 1

Solver level total Eulerian momentum exchange:
  TotalForceImp:  (-0.00027181 -1.85849e-05 -0.00841331)
  Warning, these values are based on latest Ksl and Us but prev. iteration U!

total convective particle-fluid heat flux [W] (Eulerian) = 1210.88
diagonal:  Solving for rho, Initial residual = 0, Final residual = 0, No Iterations 0
PIMPLE: iteration 1
DILUPBiCGStab:  Solving for Ux, Initial residual = 1, Final residual = 5.59113e-06, No Iterations 1
DILUPBiCGStab:  Solving for Uy, Initial residual = 1, Final residual = 7.40321e-06, No Iterations 1
DILUPBiCGStab:  Solving for Uz, Initial residual = 1, Final residual = 4.67468e-08, No Iterations 1
DILUPBiCGStab:  Solving for h, Initial residual = 1, Final residual = 3.01883e-09, No Iterations 1
DICPCG:  Solving for p, Initial residual = 1, Final residual = 0.00384407, No Iterations 23
diagonal:  Solving for rho, Initial residual = 0, Final residual = 0, No Iterations 0
time step continuity errors : sum local = 1.14306e-05, global = -6.31873e-07, cumulative = -6.31873e-07
rho max/min : 1.188 1.188
DICPCG:  Solving for p, Initial residual = 0.000280271, Final residual = 7.32488e-07, No Iterations 23
diagonal:  Solving for rho, Initial residual = 0, Final residual = 0, No Iterations 0
time step continuity errors : sum local = 6.68652e-07, global = -7.00327e-09, cumulative = -6.38876e-07
rho max/min : 1.188 1.188
DICPCG:  Solving for p, Initial residual = 1.10185e-06, Final residual = 3.48168e-07, No Iterations 1
diagonal:  Solving for rho, Initial residual = 0, Final residual = 0, No Iterations 0
time step continuity errors : sum local = 3.15434e-07, global = 5.76324e-09, cumulative = -6.33113e-07
rho max/min : 1.188 1.188
DICPCG:  Solving for p, Initial residual = 3.48624e-07, Final residual = 3.48624e-07, No Iterations 0
diagonal:  Solving for rho, Initial residual = 0, Final residual = 0, No Iterations 0
time step continuity errors : sum local = 3.15847e-07, global = 5.59475e-09, cumulative = -6.27518e-07
rho max/min : 1.188 1.188
Min Temp, Max Temp = 263 263
Min Tsource, Max Tsource = -0 112.79
ExecutionTime = 0.17 s  ClockTime = 0 s

Time = 0.01

Courant Number mean: 0.0850453 max: 0.109314

 Coupling...
Starting up LIGGGHTS
Executing command: 'run 500    '
run 500    
Setting up run at Tue Oct  9 09:28:28 2018

Memory usage per processor = 9.13486 Mbytes
    Step    Atoms         KinEng            rke       heattran         Volume 
  150501     1005  2.4508543e-06  5.7530481e-06      840.47342          0.011 
CFD Coupling established at step 150600
CFD Coupling established at step 150700
CFD Coupling established at step 150800
CFD Coupling established at step 150900
CFD Coupling established at step 151000
  151000     1005  1.5470023e-06  5.4809678e-06      834.43112          0.011 
  151001     1005  1.5455309e-06  5.4812829e-06      834.41902          0.011 
Loop time of 0.140167 on 2 procs for 500 steps with 1005 atoms, finish time Tue Oct  9 09:28:29 2018


Pair  time (%) = 0.0754086 (53.799)
Neigh time (%) = 0 (0)
Comm  time (%) = 0.0168277 (12.0054)
Outpt time (%) = 3.9207e-05 (0.0279716)
Other time (%) = 0.0478917 (34.1676)

Nlocal:    502.5 ave 547 max 458 min
Histogram: 1 0 0 0 0 0 0 0 0 1
Nghost:    32 ave 34 max 30 min
Histogram: 1 0 0 0 0 0 0 0 0 1
Neighs:    2841.5 ave 3107 max 2576 min
Histogram: 1 0 0 0 0 0 0 0 0 1

Total # of neighbors = 5683
Ave neighs/atom = 5.65473
Neighbor list builds = 0
Dangerous builds = 0
Executing command: 'set region total property/atom Temp 600.000000 '
set region total property/atom Temp 600.000000 
Setting atom values ...
  1005 settings made for property/atom
LIGGGHTS finished

 timeStepFraction() = 1
update Ksl.internalField()
DILUPBiCGStab:  Solving for Temp, Initial residual = 1, Final residual = 4.42444e-08, No Iterations 3

Solver level total Eulerian momentum exchange:
  TotalForceImp:  (0.0104735 -0.0341154 -21.0687)
  Warning, these values are based on latest Ksl and Us but prev. iteration U!

total convective particle-fluid heat flux [W] (Eulerian) = 1752.4
diagonal:  Solving for rho, Initial residual = 0, Final residual = 0, No Iterations 0
PIMPLE: iteration 1
DILUPBiCGStab:  Solving for Ux, Initial residual = 0.0379273, Final residual = 1.70588e-07, No Iterations 1
DILUPBiCGStab:  Solving for Uy, Initial residual = 0.0396095, Final residual = 8.14074e-08, No Iterations 1
DILUPBiCGStab:  Solving for Uz, Initial residual = 0.256418, Final residual = 2.44678e-07, No Iterations 1
DILUPBiCGStab:  Solving for h, Initial residual = 0.999998, Final residual = 4.24289e-06, No Iterations 2
DICPCG:  Solving for p, Initial residual = 0.0116648, Final residual = 4.91391e-05, No Iterations 23
diagonal:  Solving for rho, Initial residual = 0, Final residual = 0, No Iterations 0
time step continuity errors : sum local = 4.30938e-05, global = -2.6838e-06, cumulative = -3.31132e-06
rho max/min : 1.188 1.188
DICPCG:  Solving for p, Initial residual = 0.00108261, Final residual = 1.68067e-06, No Iterations 23
diagonal:  Solving for rho, Initial residual = 0, Final residual = 0, No Iterations 0
time step continuity errors : sum local = 1.36407e-06, global = 4.13319e-08, cumulative = -3.26999e-06
rho max/min : 1.188 1.188
DICPCG:  Solving for p, Initial residual = 1.92645e-05, Final residual = 7.36368e-07, No Iterations 5
diagonal:  Solving for rho, Initial residual = 0, Final residual = 0, No Iterations 0
time step continuity errors : sum local = 5.99596e-07, global = -6.84796e-08, cumulative = -3.33847e-06
rho max/min : 1.188 1.188
DICPCG:  Solving for p, Initial residual = 9.46311e-07, Final residual = 9.46311e-07, No Iterations 0
diagonal:  Solving for rho, Initial residual = 0, Final residual = 0, No Iterations 0
time step continuity errors : sum local = 7.70536e-07, global = -5.34704e-08, cumulative = -3.39194e-06
rho max/min : 1.188 1.188
Min Temp, Max Temp = 262.978 264.366
Min Tsource, Max Tsource = -0 153.653
ExecutionTime = 0.32 s  ClockTime = 1 s

Time = 0.015

Courant Number mean: 0.0853198 max: 0.111808

 Coupling...
Starting up LIGGGHTS
Executing command: 'run 500    '
run 500    
Setting up run at Tue Oct  9 09:28:29 2018

Memory usage per processor = 9.13486 Mbytes
    Step    Atoms         KinEng            rke       heattran         Volume 
  151001     1005  1.5455309e-06  5.4812829e-06      840.47342          0.011 
CFD Coupling established at step 151100
CFD Coupling established at step 151200
CFD Coupling established at step 151300
CFD Coupling established at step 151400
CFD Coupling established at step 151500
  151501     1005  0.00010518122   1.575762e-05       831.7114          0.011 
Loop time of 0.142321 on 2 procs for 500 steps with 1005 atoms, finish time Tue Oct  9 09:28:29 2018


Pair  time (%) = 0.0766384 (53.849)
Neigh time (%) = 0 (0)
Comm  time (%) = 0.0174372 (12.252)
Outpt time (%) = 2.17945e-05 (0.0153137)
Other time (%) = 0.0482234 (33.8836)

Nlocal:    502.5 ave 547 max 458 min
Histogram: 1 0 0 0 0 0 0 0 0 1
Nghost:    32 ave 34 max 30 min
Histogram: 1 0 0 0 0 0 0 0 0 1
Neighs:    2841.5 ave 3107 max 2576 min
Histogram: 1 0 0 0 0 0 0 0 0 1

Total # of neighbors = 5683
Ave neighs/atom = 5.65473
Neighbor list builds = 0
Dangerous builds = 0
Executing command: 'set region total property/atom Temp 600.000000 '
set region total property/atom Temp 600.000000 
Setting atom values ...
  1005 settings made for property/atom
LIGGGHTS finished

 timeStepFraction() = 1
update Ksl.internalField()
DILUPBiCGStab:  Solving for Temp, Initial residual = 0.321393, Final residual = 2.96691e-07, No Iterations 2

Solver level total Eulerian momentum exchange:
  TotalForceImp:  (0.00411824 -0.0462162 -20.8116)
  Warning, these values are based on latest Ksl and Us but prev. iteration U!

total convective particle-fluid heat flux [W] (Eulerian) = 1744.69
diagonal:  Solving for rho, Initial residual = 0, Final residual = 0, No Iterations 0
PIMPLE: iteration 1
DILUPBiCGStab:  Solving for Ux, Initial residual = 0.0113699, Final residual = 2.76325e-08, No Iterations 1
DILUPBiCGStab:  Solving for Uy, Initial residual = 0.0102106, Final residual = 8.67085e-06, No Iterations 1
DILUPBiCGStab:  Solving for Uz, Initial residual = 0.0156158, Final residual = 4.84858e-06, No Iterations 1
DILUPBiCGStab:  Solving for h, Initial residual = 0.0493307, Final residual = 5.20829e-06, No Iterations 1
DICPCG:  Solving for p, Initial residual = 0.00142574, Final residual = 1.39914e-05, No Iterations 20
diagonal:  Solving for rho, Initial residual = 0, Final residual = 0, No Iterations 0
time step continuity errors : sum local = 1.13982e-05, global = -5.76176e-07, cumulative = -3.96812e-06
rho max/min : 1.188 1.188
DICPCG:  Solving for p, Initial residual = 7.11372e-05, Final residual = 8.84351e-07, No Iterations 22
diagonal:  Solving for rho, Initial residual = 0, Final residual = 0, No Iterations 0
time step continuity errors : sum local = 7.15212e-07, global = 1.64434e-08, cumulative = -3.95167e-06
rho max/min : 1.188 1.188
DICPCG:  Solving for p, Initial residual = 1.71044e-06, Final residual = 6.11538e-07, No Iterations 1
diagonal:  Solving for rho, Initial residual = 0, Final residual = 0, No Iterations 0
time step continuity errors : sum local = 4.94707e-07, global = 1.61796e-08, cumulative = -3.93549e-06
rho max/min : 1.188 1.188
DICPCG:  Solving for p, Initial residual = 6.08466e-07, Final residual = 6.08466e-07, No Iterations 0
diagonal:  Solving for rho, Initial residual = 0, Final residual = 0, No Iterations 0
time step continuity errors : sum local = 4.92222e-07, global = 1.71133e-08, cumulative = -3.91838e-06
rho max/min : 1.188 1.188
Min Temp, Max Temp = 262.98 266.093
Min Tsource, Max Tsource = -0 154.573
ExecutionTime = 0.47 s  ClockTime = 1 s

Time = 0.02

Courant Number mean: 0.0853541 max: 0.112158

 Coupling...
Starting up LIGGGHTS
Executing command: 'run 500    '
run 500    
Setting up run at Tue Oct  9 09:28:29 2018

Memory usage per processor = 9.13486 Mbytes
    Step    Atoms         KinEng            rke       heattran         Volume 
  151501     1005  0.00010518122   1.575762e-05      840.47342          0.011 
CFD Coupling established at step 151600
CFD Coupling established at step 151700
CFD Coupling established at step 151800
CFD Coupling established at step 151900
CFD Coupling established at step 152000
  152000     1005  3.2697697e-05  1.5180735e-05      831.76741          0.011 
  152001     1005  3.2589938e-05  1.5164458e-05      831.74996          0.011 
Loop time of 0.141225 on 2 procs for 500 steps with 1005 atoms, finish time Tue Oct  9 09:28:29 2018


Pair  time (%) = 0.0760805 (53.8718)
Neigh time (%) = 0 (0)
Comm  time (%) = 0.0168895 (11.9593)
Outpt time (%) = 3.93359e-05 (0.0278534)
Other time (%) = 0.0482158 (34.1411)

Nlocal:    502.5 ave 547 max 458 min
Histogram: 1 0 0 0 0 0 0 0 0 1
Nghost:    32 ave 34 max 30 min
Histogram: 1 0 0 0 0 0 0 0 0 1
Neighs:    2841 ave 3106 max 2576 min
Histogram: 1 0 0 0 0 0 0 0 0 1

Total # of neighbors = 5682
Ave neighs/atom = 5.65373
Neighbor list builds = 0
Dangerous builds = 0
Executing command: 'set region total property/atom Temp 600.000000 '
set region total property/atom Temp 600.000000 
Setting atom values ...
  1005 settings made for property/atom
LIGGGHTS finished

 timeStepFraction() = 1
update Ksl.internalField()
DILUPBiCGStab:  Solving for Temp, Initial residual = 0.163079, Final residual = 3.20922e-08, No Iterations 2

Solver level total Eulerian momentum exchange:
  TotalForceImp:  (0.00329449 -0.0508748 -20.7958)
  Warning, these values are based on latest Ksl and Us but prev. iteration U!

total convective particle-fluid heat flux [W] (Eulerian) = 1737.13
diagonal:  Solving for rho, Initial residual = 0, Final residual = 0, No Iterations 0
PIMPLE: iteration 1
DILUPBiCGStab:  Solving for Ux, Initial residual = 0.00580517, Final residual = 2.81279e-06, No Iterations 1
DILUPBiCGStab:  Solving for Uy, Initial residual = 0.00481913, Final residual = 2.16997e-06, No Iterations 1
DILUPBiCGStab:  Solving for Uz, Initial residual = 0.0100917, Final residual = 5.76456e-06, No Iterations 1
DILUPBiCGStab:  Solving for h, Initial residual = 0.00353707, Final residual = 5.33463e-06, No Iterations 1
DICPCG:  Solving for p, Initial residual = 0.00102294, Final residual = 7.24119e-06, No Iterations 13
diagonal:  Solving for rho, Initial residual = 0, Final residual = 0, No Iterations 0
time step continuity errors : sum local = 5.86137e-06, global = -2.10131e-07, cumulative = -4.12851e-06
rho max/min : 1.188 1.188
DICPCG:  Solving for p, Initial residual = 4.13977e-05, Final residual = 8.25422e-07, No Iterations 22
diagonal:  Solving for rho, Initial residual = 0, Final residual = 0, No Iterations 0
time step continuity errors : sum local = 6.68289e-07, global = 1.87468e-08, cumulative = -4.10977e-06
rho max/min : 1.188 1.188
DICPCG:  Solving for p, Initial residual = 1.26826e-06, Final residual = 4.58669e-07, No Iterations 1
diagonal:  Solving for rho, Initial residual = 0, Final residual = 0, No Iterations 0
time step continuity errors : sum local = 3.7124e-07, global = -1.50659e-08, cumulative = -4.12483e-06
rho max/min : 1.188 1.188
DICPCG:  Solving for p, Initial residual = 4.70647e-07, Final residual = 4.70647e-07, No Iterations 0
diagonal:  Solving for rho, Initial residual = 0, Final residual = 0, No Iterations 0
time step continuity errors : sum local = 3.80935e-07, global = -1.57946e-08, cumulative = -4.14063e-06
rho max/min : 1.188 1.188
Min Temp, Max Temp = 262.982 267.795
Min Tsource, Max Tsource = -0 154.04
ExecutionTime = 0.62 s  ClockTime = 1 s

Time = 0.025

Courant Number mean: 0.0853637 max: 0.112187

 Coupling...
Starting up LIGGGHTS
Executing command: 'run 500    '
run 500    
Setting up run at Tue Oct  9 09:28:29 2018

Memory usage per processor = 9.13486 Mbytes
    Step    Atoms         KinEng            rke       heattran         Volume 
  152001     1005  3.2589938e-05  1.5164458e-05      840.47342          0.011 
CFD Coupling established at step 152100
CFD Coupling established at step 152200
CFD Coupling established at step 152300
CFD Coupling established at step 152400
CFD Coupling established at step 152500
  152501     1005  2.9214535e-05  1.2311021e-05      831.78776          0.011 
Loop time of 0.142879 on 2 procs for 500 steps with 1005 atoms, finish time Tue Oct  9 09:28:29 2018


Pair  time (%) = 0.0768497 (53.7866)
Neigh time (%) = 0 (0)
Comm  time (%) = 0.0176207 (12.3326)
Outpt time (%) = 2.07915e-05 (0.0145518)
Other time (%) = 0.0483876 (33.8662)

Nlocal:    502.5 ave 546 max 459 min
Histogram: 1 0 0 0 0 0 0 0 0 1
Nghost:    32 ave 33 max 31 min
Histogram: 1 0 0 0 0 0 0 0 0 1
Neighs:    2841.5 ave 3099 max 2584 min
Histogram: 1 0 0 0 0 0 0 0 0 1

Total # of neighbors = 5683
Ave neighs/atom = 5.65473
Neighbor list builds = 0
Dangerous builds = 0
Executing command: 'set region total property/atom Temp 600.000000 '
set region total property/atom Temp 600.000000 
Setting atom values ...
  1005 settings made for property/atom
LIGGGHTS finished

 timeStepFraction() = 1
update Ksl.internalField()
DILUPBiCGStab:  Solving for Temp, Initial residual = 0.109621, Final residual = 9.0984e-08, No Iterations 2

Solver level total Eulerian momentum exchange:
  TotalForceImp:  (0.00296344 -0.0526765 -20.823)
  Warning, these values are based on latest Ksl and Us but prev. iteration U!

total convective particle-fluid heat flux [W] (Eulerian) = 1729.77
diagonal:  Solving for rho, Initial residual = 0, Final residual = 0, No Iterations 0
PIMPLE: iteration 1
DILUPBiCGStab:  Solving for Ux, Initial residual = 0.0066561, Final residual = 4.93095e-06, No Iterations 1
DILUPBiCGStab:  Solving for Uy, Initial residual = 0.00370274, Final residual = 1.88248e-06, No Iterations 1
DILUPBiCGStab:  Solving for Uz, Initial residual = 0.00827865, Final residual = 3.18668e-06, No Iterations 1
DILUPBiCGStab:  Solving for h, Initial residual = 0.00313898, Final residual = 6.63828e-07, No Iterations 1
DICPCG:  Solving for p, Initial residual = 0.000667668, Final residual = 3.14052e-06, No Iterations 12
diagonal:  Solving for rho, Initial residual = 0, Final residual = 0, No Iterations 0
time step continuity errors : sum local = 2.54249e-06, global = -1.08814e-06, cumulative = -5.22876e-06
rho max/min : 1.188 1.188
DICPCG:  Solving for p, Initial residual = 2.33574e-05, Final residual = 2.5923e-07, No Iterations 22
diagonal:  Solving for rho, Initial residual = 0, Final residual = 0, No Iterations 0
time step continuity errors : sum local = 2.09914e-07, global = 1.24674e-08, cumulative = -5.21629e-06
rho max/min : 1.188 1.188
DICPCG:  Solving for p, Initial residual = 7.21506e-07, Final residual = 7.21506e-07, No Iterations 0
diagonal:  Solving for rho, Initial residual = 0, Final residual = 0, No Iterations 0
time step continuity errors : sum local = 5.84494e-07, global = 7.3098e-08, cumulative = -5.1432e-06
rho max/min : 1.188 1.188
DICPCG:  Solving for p, Initial residual = 7.4902e-07, Final residual = 7.4902e-07, No Iterations 0
diagonal:  Solving for rho, Initial residual = 0, Final residual = 0, No Iterations 0
time step continuity errors : sum local = 6.06783e-07, global = 7.4998e-08, cumulative = -5.0682e-06
rho max/min : 1.188 1.188
Min Temp, Max Temp = 262.983 269.473
Min Tsource, Max Tsource = -0 153.355
ExecutionTime = 0.77 s  ClockTime = 1 s

Time = 0.03

Courant Number mean: 0.0854259 max: 0.112251

 Coupling...
Starting up LIGGGHTS
Executing command: 'run 500    '
run 500    
Setting up run at Tue Oct  9 09:28:29 2018

Memory usage per processor = 9.13486 Mbytes
    Step    Atoms         KinEng            rke       heattran         Volume 
  152501     1005  2.9214535e-05  1.2311021e-05      840.47342          0.011 
CFD Coupling established at step 152600
CFD Coupling established at step 152700
CFD Coupling established at step 152800
CFD Coupling established at step 152900
CFD Coupling established at step 153000
  153000     1005  2.0328198e-05  1.3462895e-05      831.84186          0.011 
  153001     1005  2.0315796e-05  1.3463039e-05      831.82456          0.011 
Loop time of 0.141133 on 2 procs for 500 steps with 1005 atoms, finish time Tue Oct  9 09:28:29 2018


Pair  time (%) = 0.0759553 (53.8184)
Neigh time (%) = 0 (0)
Comm  time (%) = 0.0169349 (11.9993)
Outpt time (%) = 4.4409e-05 (0.0314661)
Other time (%) = 0.048198 (34.1509)

Nlocal:    502.5 ave 546 max 459 min
Histogram: 1 0 0 0 0 0 0 0 0 1
Nghost:    32 ave 33 max 31 min
Histogram: 1 0 0 0 0 0 0 0 0 1
Neighs:    2841 ave 3099 max 2583 min
Histogram: 1 0 0 0 0 0 0 0 0 1

Total # of neighbors = 5682
Ave neighs/atom = 5.65373
Neighbor list builds = 0
Dangerous builds = 0
Executing command: 'set region total property/atom Temp 600.000000 '
set region total property/atom Temp 600.000000 
Setting atom values ...
  1005 settings made for property/atom
LIGGGHTS finished

 timeStepFraction() = 1
update Ksl.internalField()
DILUPBiCGStab:  Solving for Temp, Initial residual = 0.0827852, Final residual = 3.05302e-08, No Iterations 2

Solver level total Eulerian momentum exchange:
  TotalForceImp:  (0.00201528 -0.0531597 -20.8042)
  Warning, these values are based on latest Ksl and Us but prev. iteration U!

total convective particle-fluid heat flux [W] (Eulerian) = 1721.98
diagonal:  Solving for rho, Initial residual = 0, Final residual = 0, No Iterations 0
PIMPLE: iteration 1
DILUPBiCGStab:  Solving for Ux, Initial residual = 0.0045976, Final residual = 2.82632e-06, No Iterations 1
DILUPBiCGStab:  Solving for Uy, Initial residual = 0.00342467, Final residual = 2.19167e-06, No Iterations 1
DILUPBiCGStab:  Solving for Uz, Initial residual = 0.00541447, Final residual = 2.03222e-06, No Iterations 1
DILUPBiCGStab:  Solving for h, Initial residual = 0.00349438, Final residual = 7.97847e-07, No Iterations 1
DICPCG:  Solving for p, Initial residual = 0.000363887, Final residual = 3.09276e-06, No Iterations 22
diagonal:  Solving for rho, Initial residual = 0, Final residual = 0, No Iterations 0
time step continuity errors : sum local = 2.48773e-06, global = -1.22082e-08, cumulative = -5.08041e-06
rho max/min : 1.188 1.188
DICPCG:  Solving for p, Initial residual = 1.14979e-05, Final residual = 9.97968e-07, No Iterations 6
diagonal:  Solving for rho, Initial residual = 0, Final residual = 0, No Iterations 0
time step continuity errors : sum local = 8.02471e-07, global = -1.88081e-07, cumulative = -5.26849e-06
rho max/min : 1.188 1.188
DICPCG:  Solving for p, Initial residual = 1.09561e-06, Final residual = 5.08107e-07, No Iterations 1
diagonal:  Solving for rho, Initial residual = 0, Final residual = 0, No Iterations 0
time step continuity errors : sum local = 4.08569e-07, global = -1.46599e-07, cumulative = -5.41509e-06
rho max/min : 1.188 1.188
DICPCG:  Solving for p, Initial residual = 5.12465e-07, Final residual = 5.12465e-07, No Iterations 0
diagonal:  Solving for rho, Initial residual = 0, Final residual = 0, No Iterations 0
time step continuity errors : sum local = 4.12073e-07, global = -1.464e-07, cumulative = -5.56149e-06
rho max/min : 1.188 1.188
Min Temp, Max Temp = 262.984 271.134
Min Tsource, Max Tsource = -0 152.565
ExecutionTime = 0.91 s  ClockTime = 1 s

Time = 0.035

Courant Number mean: 0.0854673 max: 0.112216

 Coupling...
Starting up LIGGGHTS
Executing command: 'run 500    '
run 500    
Setting up run at Tue Oct  9 09:28:29 2018

Memory usage per processor = 9.13486 Mbytes
    Step    Atoms         KinEng            rke       heattran         Volume 
  153001     1005  2.0315796e-05  1.3463039e-05      840.47342          0.011 
CFD Coupling established at step 153100
CFD Coupling established at step 153200
CFD Coupling established at step 153300
CFD Coupling established at step 153400
CFD Coupling established at step 153500
  153501     1005  1.9910497e-05   1.300739e-05      831.86352          0.011 
Loop time of 0.142883 on 2 procs for 500 steps with 1005 atoms, finish time Tue Oct  9 09:28:29 2018


Pair  time (%) = 0.0759291 (53.1406)
Neigh time (%) = 0 (0)
Comm  time (%) = 0.0189386 (13.2546)
Outpt time (%) = 2.8697e-05 (0.0200842)
Other time (%) = 0.0479869 (33.5847)

Nlocal:    502.5 ave 547 max 458 min
Histogram: 1 0 0 0 0 0 0 0 0 1
Nghost:    32 ave 34 max 30 min
Histogram: 1 0 0 0 0 0 0 0 0 1
Neighs:    2841.5 ave 3107 max 2576 min
Histogram: 1 0 0 0 0 0 0 0 0 1

Total # of neighbors = 5683
Ave neighs/atom = 5.65473
Neighbor list builds = 0
Dangerous builds = 0
Executing command: 'set region total property/atom Temp 600.000000 '
set region total property/atom Temp 600.000000 
Setting atom values ...
  1005 settings made for property/atom
LIGGGHTS finished

 timeStepFraction() = 1
update Ksl.internalField()
DILUPBiCGStab:  Solving for Temp, Initial residual = 0.0666358, Final residual = 2.50017e-08, No Iterations 2

Solver level total Eulerian momentum exchange:
  TotalForceImp:  (0.00104213 -0.0531986 -20.7881)
  Warning, these values are based on latest Ksl and Us but prev. iteration U!

total convective particle-fluid heat flux [W] (Eulerian) = 1714.38
diagonal:  Solving for rho, Initial residual = 0, Final residual = 0, No Iterations 0
PIMPLE: iteration 1
DILUPBiCGStab:  Solving for Ux, Initial residual = 0.00439473, Final residual = 4.60996e-06, No Iterations 1
DILUPBiCGStab:  Solving for Uy, Initial residual = 0.00299108, Final residual = 1.9236e-06, No Iterations 1
DILUPBiCGStab:  Solving for Uz, Initial residual = 0.00432052, Final residual = 2.26275e-06, No Iterations 1
DILUPBiCGStab:  Solving for h, Initial residual = 0.00338458, Final residual = 7.63855e-07, No Iterations 1
DICPCG:  Solving for p, Initial residual = 0.000255808, Final residual = 7.70539e-07, No Iterations 23
diagonal:  Solving for rho, Initial residual = 0, Final residual = 0, No Iterations 0
time step continuity errors : sum local = 6.18475e-07, global = -4.96809e-08, cumulative = -5.61117e-06
rho max/min : 1.188 1.188
DICPCG:  Solving for p, Initial residual = 6.96251e-06, Final residual = 6.90831e-07, No Iterations 3
diagonal:  Solving for rho, Initial residual = 0, Final residual = 0, No Iterations 0
time step continuity errors : sum local = 5.53949e-07, global = 2.92178e-08, cumulative = -5.58195e-06
rho max/min : 1.188 1.188
DICPCG:  Solving for p, Initial residual = 7.30548e-07, Final residual = 7.30548e-07, No Iterations 0
diagonal:  Solving for rho, Initial residual = 0, Final residual = 0, No Iterations 0
time step continuity errors : sum local = 5.85795e-07, global = 2.84796e-08, cumulative = -5.55347e-06
rho max/min : 1.188 1.188
DICPCG:  Solving for p, Initial residual = 7.32209e-07, Final residual = 7.32209e-07, No Iterations 0
diagonal:  Solving for rho, Initial residual = 0, Final residual = 0, No Iterations 0
time step continuity errors : sum local = 5.87127e-07, global = 2.82343e-08, cumulative = -5.52524e-06
rho max/min : 1.188 1.188
Min Temp, Max Temp = 262.986 272.777
Min Tsource, Max Tsource = -0 151.921
ExecutionTime = 1.06 s  ClockTime = 1 s

Time = 0.04

Courant Number mean: 0.0855048 max: 0.112233

 Coupling...
Starting up LIGGGHTS
Executing command: 'run 500    '
run 500    
Setting up run at Tue Oct  9 09:28:29 2018

Memory usage per processor = 9.13486 Mbytes
    Step    Atoms         KinEng            rke       heattran         Volume 
  153501     1005  1.9910497e-05   1.300739e-05      840.47342          0.011 
CFD Coupling established at step 153600
CFD Coupling established at step 153700
CFD Coupling established at step 153800
CFD Coupling established at step 153900
CFD Coupling established at step 154000
  154000     1005  8.9503294e-06  1.1338356e-05      831.91865          0.011 
  154001     1005  8.9394206e-06  1.1336444e-05      831.90151          0.011 
Loop time of 0.136819 on 2 procs for 500 steps with 1005 atoms, finish time Tue Oct  9 09:28:30 2018


Pair  time (%) = 0.0739883 (54.0774)
Neigh time (%) = 0 (0)
Comm  time (%) = 0.0157867 (11.5384)
Outpt time (%) = 4.6337e-05 (0.0338673)
Other time (%) = 0.046998 (34.3504)

Nlocal:    502.5 ave 547 max 458 min
Histogram: 1 0 0 0 0 0 0 0 0 1
Nghost:    32 ave 34 max 30 min
Histogram: 1 0 0 0 0 0 0 0 0 1
Neighs:    2841.5 ave 3106 max 2577 min
Histogram: 1 0 0 0 0 0 0 0 0 1

Total # of neighbors = 5683
Ave neighs/atom = 5.65473
Neighbor list builds = 0
Dangerous builds = 0
Executing command: 'set region total property/atom Temp 600.000000 '
set region total property/atom Temp 600.000000 
Setting atom values ...
  1005 settings made for property/atom
LIGGGHTS finished

 timeStepFraction() = 1
update Ksl.internalField()
DILUPBiCGStab:  Solving for Temp, Initial residual = 0.0558606, Final residual = 2.07448e-08, No Iterations 2

Solver level total Eulerian momentum exchange:
  TotalForceImp:  (2.87386e-05 -0.0531248 -20.7825)
  Warning, these values are based on latest Ksl and Us but prev. iteration U!

total convective particle-fluid heat flux [W] (Eulerian) = 1706.93
diagonal:  Solving for rho, Initial residual = 0, Final residual = 0, No Iterations 0
PIMPLE: iteration 1
DILUPBiCGStab:  Solving for Ux, Initial residual = 0.00355235, Final residual = 2.73177e-06, No Iterations 1
DILUPBiCGStab:  Solving for Uy, Initial residual = 0.00238023, Final residual = 1.25285e-06, No Iterations 1
DILUPBiCGStab:  Solving for Uz, Initial residual = 0.00291307, Final residual = 1.03771e-06, No Iterations 1
DILUPBiCGStab:  Solving for h, Initial residual = 0.00333723, Final residual = 6.87061e-07, No Iterations 1
DICPCG:  Solving for p, Initial residual = 0.000179682, Final residual = 1.45255e-06, No Iterations 15
diagonal:  Solving for rho, Initial residual = 0, Final residual = 0, No Iterations 0
time step continuity errors : sum local = 1.15413e-06, global = 2.3286e-07, cumulative = -5.29238e-06
rho max/min : 1.188 1.188
DICPCG:  Solving for p, Initial residual = 6.62016e-06, Final residual = 7.4887e-07, No Iterations 20
diagonal:  Solving for rho, Initial residual = 0, Final residual = 0, No Iterations 0
time step continuity errors : sum local = 5.94921e-07, global = 4.64241e-08, cumulative = -5.24595e-06
rho max/min : 1.188 1.188
DICPCG:  Solving for p, Initial residual = 7.66105e-07, Final residual = 7.66105e-07, No Iterations 0
diagonal:  Solving for rho, Initial residual = 0, Final residual = 0, No Iterations 0
time step continuity errors : sum local = 6.08563e-07, global = 3.45242e-08, cumulative = -5.21143e-06
rho max/min : 1.188 1.188
DICPCG:  Solving for p, Initial residual = 7.67744e-07, Final residual = 7.67744e-07, No Iterations 0
diagonal:  Solving for rho, Initial residual = 0, Final residual = 0, No Iterations 0
time step continuity errors : sum local = 6.09865e-07, global = 3.38669e-08, cumulative = -5.17756e-06
rho max/min : 1.188 1.188
Min Temp, Max Temp = 262.987 274.403
Min Tsource, Max Tsource = -0 151.188
ExecutionTime = 1.21 s  ClockTime = 2 s

Time = 0.045

Courant Number mean: 0.0855411 max: 0.112217

 Coupling...
Starting up LIGGGHTS
Executing command: 'run 500    '
run 500    
Setting up run at Tue Oct  9 09:28:30 2018

Memory usage per processor = 9.13486 Mbytes
    Step    Atoms         KinEng            rke       heattran         Volume 
  154001     1005  8.9394206e-06  1.1336444e-05      840.47342          0.011 
CFD Coupling established at step 154100
CFD Coupling established at step 154200
CFD Coupling established at step 154300
CFD Coupling established at step 154400
CFD Coupling established at step 154500
  154501     1005  1.1289703e-05  1.1892169e-05      831.93877          0.011 
Loop time of 0.139866 on 2 procs for 500 steps with 1005 atoms, finish time Tue Oct  9 09:28:30 2018


Pair  time (%) = 0.07502 (53.6368)
Neigh time (%) = 0 (0)
Comm  time (%) = 0.0172328 (12.3209)
Outpt time (%) = 1.99046e-05 (0.0142311)
Other time (%) = 0.0475938 (34.028)

Nlocal:    502.5 ave 546 max 459 min
Histogram: 1 0 0 0 0 0 0 0 0 1
Nghost:    32 ave 33 max 31 min
Histogram: 1 0 0 0 0 0 0 0 0 1
Neighs:    2841.5 ave 3099 max 2584 min
Histogram: 1 0 0 0 0 0 0 0 0 1

Total # of neighbors = 5683
Ave neighs/atom = 5.65473
Neighbor list builds = 0
Dangerous builds = 0
Executing command: 'set region total property/atom Temp 600.000000 '
set region total property/atom Temp 600.000000 
Setting atom values ...
  1005 settings made for property/atom
LIGGGHTS finished

 timeStepFraction() = 1
update Ksl.internalField()
DILUPBiCGStab:  Solving for Temp, Initial residual = 0.0480899, Final residual = 1.76153e-08, No Iterations 2

Solver level total Eulerian momentum exchange:
  TotalForceImp:  (-4.91238e-05 -0.0531525 -20.7858)
  Warning, these values are based on latest Ksl and Us but prev. iteration U!

total convective particle-fluid heat flux [W] (Eulerian) = 1699.65
diagonal:  Solving for rho, Initial residual = 0, Final residual = 0, No Iterations 0
PIMPLE: iteration 1
DILUPBiCGStab:  Solving for Ux, Initial residual = 0.00334145, Final residual = 2.88566e-06, No Iterations 1
DILUPBiCGStab:  Solving for Uy, Initial residual = 0.00217824, Final residual = 1.38327e-06, No Iterations 1
DILUPBiCGStab:  Solving for Uz, Initial residual = 0.00218172, Final residual = 1.40999e-06, No Iterations 1
DILUPBiCGStab:  Solving for h, Initial residual = 0.00316217, Final residual = 7.17344e-07, No Iterations 1
DICPCG:  Solving for p, Initial residual = 0.000142535, Final residual = 3.73458e-07, No Iterations 23
diagonal:  Solving for rho, Initial residual = 0, Final residual = 0, No Iterations 0
time step continuity errors : sum local = 2.9665e-07, global = -9.28014e-09, cumulative = -5.18684e-06
rho max/min : 1.188 1.188
DICPCG:  Solving for p, Initial residual = 5.07526e-06, Final residual = 9.99912e-07, No Iterations 2
diagonal:  Solving for rho, Initial residual = 0, Final residual = 0, No Iterations 0
time step continuity errors : sum local = 7.94353e-07, global = 5.75411e-08, cumulative = -5.1293e-06
rho max/min : 1.188 1.188
DICPCG:  Solving for p, Initial residual = 9.89178e-07, Final residual = 9.89178e-07, No Iterations 0
diagonal:  Solving for rho, Initial residual = 0, Final residual = 0, No Iterations 0
time step continuity errors : sum local = 7.85825e-07, global = 6.17749e-08, cumulative = -5.06753e-06
rho max/min : 1.188 1.188
DICPCG:  Solving for p, Initial residual = 9.90145e-07, Final residual = 9.90145e-07, No Iterations 0
diagonal:  Solving for rho, Initial residual = 0, Final residual = 0, No Iterations 0
time step continuity errors : sum local = 7.86593e-07, global = 6.19214e-08, cumulative = -5.0056e-06
rho max/min : 1.188 1.188
Min Temp, Max Temp = 262.988 276.013
Min Tsource, Max Tsource = -0 150.905
ExecutionTime = 1.36 s  ClockTime = 2 s

Time = 0.05

Courant Number mean: 0.0855743 max: 0.112234

 Coupling...
Starting up LIGGGHTS
Executing command: 'run 500    '
run 500    
Setting up run at Tue Oct  9 09:28:30 2018

Memory usage per processor = 9.13486 Mbytes
    Step    Atoms         KinEng            rke       heattran         Volume 
  154501     1005  1.1289703e-05  1.1892169e-05      840.47342          0.011 
CFD Coupling established at step 154600
CFD Coupling established at step 154700
CFD Coupling established at step 154800
CFD Coupling established at step 154900
CFD Coupling established at step 155000
  155000     1005  7.2821819e-06  1.1500122e-05      831.99216          0.011 
  155001     1005  7.2701279e-06  1.1496405e-05      831.97517          0.011 
Loop time of 0.137338 on 2 procs for 500 steps with 1005 atoms, finish time Tue Oct  9 09:28:30 2018


Pair  time (%) = 0.074297 (54.098)
Neigh time (%) = 0 (0)
Comm  time (%) = 0.015762 (11.4768)
Outpt time (%) = 4.01681e-05 (0.0292476)
Other time (%) = 0.0472386 (34.3959)

Nlocal:    502.5 ave 546 max 459 min
Histogram: 1 0 0 0 0 0 0 0 0 1
Nghost:    32 ave 33 max 31 min
Histogram: 1 0 0 0 0 0 0 0 0 1
Neighs:    2841.5 ave 3099 max 2584 min
Histogram: 1 0 0 0 0 0 0 0 0 1

Total # of neighbors = 5683
Ave neighs/atom = 5.65473
Neighbor list builds = 0
Dangerous builds = 0
Executing command: 'set region total property/atom Temp 600.000000 '
set region total property/atom Temp 600.000000 
Setting atom values ...
  1005 settings made for property/atom
LIGGGHTS finished

 timeStepFraction() = 1
update Ksl.internalField()
DILUPBiCGStab:  Solving for Temp, Initial residual = 0.0421812, Final residual = 1.53764e-08, No Iterations 2

Solver level total Eulerian momentum exchange:
  TotalForceImp:  (0.000356685 -0.0533512 -20.7843)
  Warning, these values are based on latest Ksl and Us but prev. iteration U!

total convective particle-fluid heat flux [W] (Eulerian) = 1692.45
diagonal:  Solving for rho, Initial residual = 0, Final residual = 0, No Iterations 0
PIMPLE: iteration 1
DILUPBiCGStab:  Solving for Ux, Initial residual = 0.00245447, Final residual = 9.80587e-07, No Iterations 1
DILUPBiCGStab:  Solving for Uy, Initial residual = 0.00180639, Final residual = 1.2226e-06, No Iterations 1
DILUPBiCGStab:  Solving for Uz, Initial residual = 0.0018713, Final residual = 6.30846e-07, No Iterations 1
DILUPBiCGStab:  Solving for h, Initial residual = 0.00335211, Final residual = 7.55631e-07, No Iterations 1
DICPCG:  Solving for p, Initial residual = 0.000169057, Final residual = 1.00423e-06, No Iterations 10
diagonal:  Solving for rho, Initial residual = 0, Final residual = 0, No Iterations 0
time step continuity errors : sum local = 7.97758e-07, global = -1.23633e-07, cumulative = -5.12924e-06
rho max/min : 1.188 1.188
DICPCG:  Solving for p, Initial residual = 4.22452e-06, Final residual = 7.39638e-07, No Iterations 2
diagonal:  Solving for rho, Initial residual = 0, Final residual = 0, No Iterations 0
time step continuity errors : sum local = 5.87588e-07, global = -5.53595e-08, cumulative = -5.1846e-06
rho max/min : 1.188 1.188
DICPCG:  Solving for p, Initial residual = 7.36782e-07, Final residual = 7.36782e-07, No Iterations 0
diagonal:  Solving for rho, Initial residual = 0, Final residual = 0, No Iterations 0
time step continuity errors : sum local = 5.85319e-07, global = -4.96593e-08, cumulative = -5.23426e-06
rho max/min : 1.188 1.188
DICPCG:  Solving for p, Initial residual = 7.35723e-07, Final residual = 7.35723e-07, No Iterations 0
diagonal:  Solving for rho, Initial residual = 0, Final residual = 0, No Iterations 0
time step continuity errors : sum local = 5.84477e-07, global = -4.93822e-08, cumulative = -5.28364e-06
rho max/min : 1.188 1.188
Min Temp, Max Temp = 262.989 277.609
Min Tsource, Max Tsource = -0 150.782
ExecutionTime = 1.5 s  ClockTime = 2 s

Time = 0.055

Courant Number mean: 0.0856012 max: 0.11223

 Coupling...
Starting up LIGGGHTS
Executing command: 'run 500    '
run 500    
Setting up run at Tue Oct  9 09:28:30 2018

Memory usage per processor = 9.13486 Mbytes
    Step    Atoms         KinEng            rke       heattran         Volume 
  155001     1005  7.2701279e-06  1.1496405e-05      840.47342          0.011 
CFD Coupling established at step 155100
CFD Coupling established at step 155200
CFD Coupling established at step 155300
CFD Coupling established at step 155400
CFD Coupling established at step 155500
  155501     1005  5.6951783e-06  1.0357174e-05      832.01115          0.011 
Loop time of 0.14661 on 2 procs for 500 steps with 1005 atoms, finish time Tue Oct  9 09:28:30 2018


Pair  time (%) = 0.0771141 (52.5981)
Neigh time (%) = 0 (0)
Comm  time (%) = 0.0209398 (14.2826)
Outpt time (%) = 2.01575e-05 (0.0137491)
Other time (%) = 0.0485361 (33.1056)

Nlocal:    502.5 ave 547 max 458 min
Histogram: 1 0 0 0 0 0 0 0 0 1
Nghost:    32 ave 34 max 30 min
Histogram: 1 0 0 0 0 0 0 0 0 1
Neighs:    2841 ave 3106 max 2576 min
Histogram: 1 0 0 0 0 0 0 0 0 1

Total # of neighbors = 5682
Ave neighs/atom = 5.65373
Neighbor list builds = 0
Dangerous builds = 0
Executing command: 'set region total property/atom Temp 600.000000 '
set region total property/atom Temp 600.000000 
Setting atom values ...
  1005 settings made for property/atom
LIGGGHTS finished

 timeStepFraction() = 1
update Ksl.internalField()
DILUPBiCGStab:  Solving for Temp, Initial residual = 0.0375933, Final residual = 1.36211e-08, No Iterations 2

Solver level total Eulerian momentum exchange:
  TotalForceImp:  (7.49784e-05 -0.0533284 -20.7837)
  Warning, these values are based on latest Ksl and Us but prev. iteration U!

total convective particle-fluid heat flux [W] (Eulerian) = 1685.41
diagonal:  Solving for rho, Initial residual = 0, Final residual = 0, No Iterations 0
PIMPLE: iteration 1
DILUPBiCGStab:  Solving for Ux, Initial residual = 0.00298519, Final residual = 2.24822e-06, No Iterations 1
DILUPBiCGStab:  Solving for Uy, Initial residual = 0.00198917, Final residual = 1.10231e-06, No Iterations 1
DILUPBiCGStab:  Solving for Uz, Initial residual = 0.00150593, Final residual = 8.68129e-07, No Iterations 1
DILUPBiCGStab:  Solving for h, Initial residual = 0.00330883, Final residual = 7.75232e-07, No Iterations 1
DICPCG:  Solving for p, Initial residual = 9.382e-05, Final residual = 1.95686e-07, No Iterations 23
diagonal:  Solving for rho, Initial residual = 0, Final residual = 0, No Iterations 0
time step continuity errors : sum local = 1.55454e-07, global = 4.82931e-09, cumulative = -5.27881e-06
rho max/min : 1.188 1.188
DICPCG:  Solving for p, Initial residual = 3.70166e-06, Final residual = 7.61441e-07, No Iterations 2
diagonal:  Solving for rho, Initial residual = 0, Final residual = 0, No Iterations 0
time step continuity errors : sum local = 6.04857e-07, global = 3.28177e-08, cumulative = -5.24599e-06
rho max/min : 1.188 1.188
DICPCG:  Solving for p, Initial residual = 7.82813e-07, Final residual = 7.82813e-07, No Iterations 0
diagonal:  Solving for rho, Initial residual = 0, Final residual = 0, No Iterations 0
time step continuity errors : sum local = 6.21834e-07, global = 3.67531e-08, cumulative = -5.20924e-06
rho max/min : 1.188 1.188
DICPCG:  Solving for p, Initial residual = 7.83746e-07, Final residual = 7.83746e-07, No Iterations 0
diagonal:  Solving for rho, Initial residual = 0, Final residual = 0, No Iterations 0
time step continuity errors : sum local = 6.22575e-07, global = 3.69555e-08, cumulative = -5.17228e-06
rho max/min : 1.188 1.188
Min Temp, Max Temp = 262.99 279.19
Min Tsource, Max Tsource = -0 150.765
ExecutionTime = 1.65 s  ClockTime = 2 s

Time = 0.06

Courant Number mean: 0.0856263 max: 0.112786

 Coupling...
Starting up LIGGGHTS
Executing command: 'run 500    '
run 500    
Setting up run at Tue Oct  9 09:28:30 2018

Memory usage per processor = 9.13486 Mbytes
    Step    Atoms         KinEng            rke       heattran         Volume 
  155501     1005  5.6951783e-06  1.0357174e-05      840.47342          0.011 
CFD Coupling established at step 155600
CFD Coupling established at step 155700
CFD Coupling established at step 155800
CFD Coupling established at step 155900
CFD Coupling established at step 156000
  156000     1005  5.3762655e-06  1.0953895e-05      832.06325          0.011 
  156001     1005  5.3715647e-06  1.0953704e-05      832.04639          0.011 
Loop time of 0.142903 on 2 procs for 500 steps with 1005 atoms, finish time Tue Oct  9 09:28:30 2018


Pair  time (%) = 0.0757717 (53.0232)
Neigh time (%) = 0 (0)
Comm  time (%) = 0.0189895 (13.2884)
Outpt time (%) = 4.07375e-05 (0.0285071)
Other time (%) = 0.048101 (33.6599)

Nlocal:    502.5 ave 547 max 458 min
Histogram: 1 0 0 0 0 0 0 0 0 1
Nghost:    32 ave 34 max 30 min
Histogram: 1 0 0 0 0 0 0 0 0 1
Neighs:    2840.5 ave 3106 max 2575 min
Histogram: 1 0 0 0 0 0 0 0 0 1

Total # of neighbors = 5681
Ave neighs/atom = 5.65274
Neighbor list builds = 0
Dangerous builds = 0
Executing command: 'set region total property/atom Temp 600.000000 '
set region total property/atom Temp 600.000000 
Setting atom values ...
  1005 settings made for property/atom
LIGGGHTS finished

 timeStepFraction() = 1
update Ksl.internalField()
DILUPBiCGStab:  Solving for Temp, Initial residual = 0.033924, Final residual = 1.21893e-08, No Iterations 2

Solver level total Eulerian momentum exchange:
  TotalForceImp:  (-0.000324466 -0.0531424 -20.7849)
  Warning, these values are based on latest Ksl and Us but prev. iteration U!

total convective particle-fluid heat flux [W] (Eulerian) = 1678.47
diagonal:  Solving for rho, Initial residual = 0, Final residual = 0, No Iterations 0
PIMPLE: iteration 1
DILUPBiCGStab:  Solving for Ux, Initial residual = 0.00230371, Final residual = 1.40095e-06, No Iterations 1
DILUPBiCGStab:  Solving for Uy, Initial residual = 0.00162913, Final residual = 1.27578e-06, No Iterations 1
DILUPBiCGStab:  Solving for Uz, Initial residual = 0.00109018, Final residual = 4.38522e-07, No Iterations 1
DILUPBiCGStab:  Solving for h, Initial residual = 0.00332374, Final residual = 7.76142e-07, No Iterations 1
DICPCG:  Solving for p, Initial residual = 6.99312e-05, Final residual = 8.87006e-07, No Iterations 22
diagonal:  Solving for rho, Initial residual = 0, Final residual = 0, No Iterations 0
time step continuity errors : sum local = 7.04585e-07, global = 8.22129e-09, cumulative = -5.16406e-06
rho max/min : 1.188 1.188
DICPCG:  Solving for p, Initial residual = 2.85426e-06, Final residual = 5.30527e-07, No Iterations 2
diagonal:  Solving for rho, Initial residual = 0, Final residual = 0, No Iterations 0
time step continuity errors : sum local = 4.21469e-07, global = 2.94931e-08, cumulative = -5.13457e-06
rho max/min : 1.188 1.188
DICPCG:  Solving for p, Initial residual = 5.43334e-07, Final residual = 5.43334e-07, No Iterations 0
diagonal:  Solving for rho, Initial residual = 0, Final residual = 0, No Iterations 0
time step continuity errors : sum local = 4.31643e-07, global = 3.30475e-08, cumulative = -5.10152e-06
rho max/min : 1.188 1.188
DICPCG:  Solving for p, Initial residual = 5.43495e-07, Final residual = 5.43495e-07, No Iterations 0
diagonal:  Solving for rho, Initial residual = 0, Final residual = 0, No Iterations 0
time step continuity errors : sum local = 4.31771e-07, global = 3.32312e-08, cumulative = -5.06829e-06
rho max/min : 1.188 1.188
Min Temp, Max Temp = 262.991 280.757
Min Tsource, Max Tsource = -0 150.752
ExecutionTime = 1.8 s  ClockTime = 2 s

Time = 0.065

Courant Number mean: 0.0856518 max: 0.114095

 Coupling...
Starting up LIGGGHTS
Executing command: 'run 500    '
run 500    
Setting up run at Tue Oct  9 09:28:30 2018

Memory usage per processor = 9.13486 Mbytes
    Step    Atoms         KinEng            rke       heattran         Volume 
  156001     1005  5.3715647e-06  1.0953704e-05      840.47342          0.011 
CFD Coupling established at step 156100
CFD Coupling established at step 156200
CFD Coupling established at step 156300
CFD Coupling established at step 156400
CFD Coupling established at step 156500
  156501     1005  3.7372587e-06  1.0272653e-05      832.08105          0.011 
Loop time of 0.135159 on 2 procs for 500 steps with 1005 atoms, finish time Tue Oct  9 09:28:30 2018


Pair  time (%) = 0.0738395 (54.6317)
Neigh time (%) = 0 (0)
Comm  time (%) = 0.0146089 (10.8087)
Outpt time (%) = 1.98956e-05 (0.0147202)
Other time (%) = 0.0466903 (34.5449)

Nlocal:    502.5 ave 546 max 459 min
Histogram: 1 0 0 0 0 0 0 0 0 1
Nghost:    32 ave 33 max 31 min
Histogram: 1 0 0 0 0 0 0 0 0 1
Neighs:    2841.5 ave 3099 max 2584 min
Histogram: 1 0 0 0 0 0 0 0 0 1

Total # of neighbors = 5683
Ave neighs/atom = 5.65473
Neighbor list builds = 0
Dangerous builds = 0
Executing command: 'set region total property/atom Temp 600.000000 '
set region total property/atom Temp 600.000000 
Setting atom values ...
  1005 settings made for property/atom
LIGGGHTS finished

 timeStepFraction() = 1
update Ksl.internalField()
DILUPBiCGStab:  Solving for Temp, Initial residual = 0.0309246, Final residual = 1.06555e-08, No Iterations 2

Solver level total Eulerian momentum exchange:
  TotalForceImp:  (-0.000206555 -0.0531451 -20.7868)
  Warning, these values are based on latest Ksl and Us but prev. iteration U!

total convective particle-fluid heat flux [W] (Eulerian) = 1671.65
diagonal:  Solving for rho, Initial residual = 0, Final residual = 0, No Iterations 0
PIMPLE: iteration 1
DILUPBiCGStab:  Solving for Ux, Initial residual = 0.00237919, Final residual = 1.85915e-06, No Iterations 1
DILUPBiCGStab:  Solving for Uy, Initial residual = 0.00146887, Final residual = 9.23093e-07, No Iterations 1
DILUPBiCGStab:  Solving for Uz, Initial residual = 0.00110624, Final residual = 6.49075e-07, No Iterations 1
DILUPBiCGStab:  Solving for h, Initial residual = 0.0033624, Final residual = 7.8061e-07, No Iterations 1
DICPCG:  Solving for p, Initial residual = 5.86168e-05, Final residual = 5.1269e-07, No Iterations 22
diagonal:  Solving for rho, Initial residual = 0, Final residual = 0, No Iterations 0
time step continuity errors : sum local = 4.07293e-07, global = 2.35723e-08, cumulative = -5.04472e-06
rho max/min : 1.188 1.188
DICPCG:  Solving for p, Initial residual = 2.16186e-06, Final residual = 3.89703e-07, No Iterations 2
diagonal:  Solving for rho, Initial residual = 0, Final residual = 0, No Iterations 0
time step continuity errors : sum local = 3.09618e-07, global = 1.7777e-08, cumulative = -5.02694e-06
rho max/min : 1.188 1.188
DICPCG:  Solving for p, Initial residual = 3.96779e-07, Final residual = 3.96779e-07, No Iterations 0
diagonal:  Solving for rho, Initial residual = 0, Final residual = 0, No Iterations 0
time step continuity errors : sum local = 3.15241e-07, global = 2.08079e-08, cumulative = -5.00613e-06
rho max/min : 1.188 1.188
DICPCG:  Solving for p, Initial residual = 3.97227e-07, Final residual = 3.97227e-07, No Iterations 0
diagonal:  Solving for rho, Initial residual = 0, Final residual = 0, No Iterations 0
time step continuity errors : sum local = 3.15596e-07, global = 2.10127e-08, cumulative = -4.98512e-06
rho max/min : 1.188 1.188
Min Temp, Max Temp = 262.991 282.311
Min Tsource, Max Tsource = -0 150.733
ExecutionTime = 1.95 s  ClockTime = 2 s

Time = 0.07

Courant Number mean: 0.0856757 max: 0.115288

 Coupling...
Starting up LIGGGHTS
Executing command: 'run 500    '
run 500    
Setting up run at Tue Oct  9 09:28:30 2018

Memory usage per processor = 9.13486 Mbytes
    Step    Atoms         KinEng            rke       heattran         Volume 
  156501     1005  3.7372587e-06  1.0272653e-05      840.47342          0.011 
CFD Coupling established at step 156600
CFD Coupling established at step 156700
CFD Coupling established at step 156800
CFD Coupling established at step 156900
CFD Coupling established at step 157000
  157000     1005  4.0732083e-06  1.0424163e-05      832.13188          0.011 
  157001     1005  4.0730611e-06  1.0424691e-05      832.11517          0.011 
Loop time of 0.135153 on 2 procs for 500 steps with 1005 atoms, finish time Tue Oct  9 09:28:30 2018


Pair  time (%) = 0.0739596 (54.723)
Neigh time (%) = 0 (0)
Comm  time (%) = 0.0144135 (10.6646)
Outpt time (%) = 4.6228e-05 (0.0342042)
Other time (%) = 0.0467335 (34.5783)

Nlocal:    502.5 ave 546 max 459 min
Histogram: 1 0 0 0 0 0 0 0 0 1
Nghost:    32 ave 33 max 31 min
Histogram: 1 0 0 0 0 0 0 0 0 1
Neighs:    2841.5 ave 3099 max 2584 min
Histogram: 1 0 0 0 0 0 0 0 0 1

Total # of neighbors = 5683
Ave neighs/atom = 5.65473
Neighbor list builds = 0
Dangerous builds = 0
Executing command: 'set region total property/atom Temp 600.000000 '
set region total property/atom Temp 600.000000 
Setting atom values ...
  1005 settings made for property/atom
LIGGGHTS finished

 timeStepFraction() = 1
update Ksl.internalField()
DILUPBiCGStab:  Solving for Temp, Initial residual = 0.0284334, Final residual = 9.62566e-09, No Iterations 2

Solver level total Eulerian momentum exchange:
  TotalForceImp:  (0.000106348 -0.053344 -20.785)
  Warning, these values are based on latest Ksl and Us but prev. iteration U!

total convective particle-fluid heat flux [W] (Eulerian) = 1664.89
diagonal:  Solving for rho, Initial residual = 0, Final residual = 0, No Iterations 0
PIMPLE: iteration 1
DILUPBiCGStab:  Solving for Ux, Initial residual = 0.00217034, Final residual = 1.51903e-06, No Iterations 1
DILUPBiCGStab:  Solving for Uy, Initial residual = 0.00146952, Final residual = 1.14629e-06, No Iterations 1
DILUPBiCGStab:  Solving for Uz, Initial residual = 0.000888716, Final residual = 3.84365e-07, No Iterations 1
DILUPBiCGStab:  Solving for h, Initial residual = 0.00334299, Final residual = 7.77298e-07, No Iterations 1
DICPCG:  Solving for p, Initial residual = 4.62049e-05, Final residual = 9.7128e-07, No Iterations 10
diagonal:  Solving for rho, Initial residual = 0, Final residual = 0, No Iterations 0
time step continuity errors : sum local = 7.71674e-07, global = 2.98465e-07, cumulative = -4.68666e-06
rho max/min : 1.188 1.188
DICPCG:  Solving for p, Initial residual = 2.08994e-06, Final residual = 8.50082e-07, No Iterations 2
diagonal:  Solving for rho, Initial residual = 0, Final residual = 0, No Iterations 0
time step continuity errors : sum local = 6.7537e-07, global = 3.43747e-07, cumulative = -4.34291e-06
rho max/min : 1.188 1.188
DICPCG:  Solving for p, Initial residual = 8.60223e-07, Final residual = 8.60223e-07, No Iterations 0
diagonal:  Solving for rho, Initial residual = 0, Final residual = 0, No Iterations 0
time step continuity errors : sum local = 6.83427e-07, global = 3.47042e-07, cumulative = -3.99587e-06
rho max/min : 1.188 1.188
DICPCG:  Solving for p, Initial residual = 8.59991e-07, Final residual = 8.59991e-07, No Iterations 0
diagonal:  Solving for rho, Initial residual = 0, Final residual = 0, No Iterations 0
time step continuity errors : sum local = 6.83242e-07, global = 3.47129e-07, cumulative = -3.64874e-06
rho max/min : 1.188 1.188
Min Temp, Max Temp = 262.992 283.852
Min Tsource, Max Tsource = -0 150.718
ExecutionTime = 2.09 s  ClockTime = 2 s

Time = 0.075

Courant Number mean: 0.0857019 max: 0.116388

 Coupling...
Starting up LIGGGHTS
Executing command: 'run 500    '
run 500    
Setting up run at Tue Oct  9 09:28:30 2018

Memory usage per processor = 9.13486 Mbytes
    Step    Atoms         KinEng            rke       heattran         Volume 
  157001     1005  4.0730611e-06  1.0424691e-05      840.47342          0.011 
CFD Coupling established at step 157100
CFD Coupling established at step 157200
CFD Coupling established at step 157300
CFD Coupling established at step 157400
CFD Coupling established at step 157500
  157501     1005  3.1668714e-06  1.0095695e-05      832.14896          0.011 
Loop time of 0.135913 on 2 procs for 500 steps with 1005 atoms, finish time Tue Oct  9 09:28:31 2018


Pair  time (%) = 0.0735894 (54.1445)
Neigh time (%) = 0 (0)
Comm  time (%) = 0.0155022 (11.406)
Outpt time (%) = 1.99386e-05 (0.0146701)
Other time (%) = 0.0468015 (34.4349)

Nlocal:    502.5 ave 546 max 459 min
Histogram: 1 0 0 0 0 0 0 0 0 1
Nghost:    32 ave 33 max 31 min
Histogram: 1 0 0 0 0 0 0 0 0 1
Neighs:    2841.5 ave 3099 max 2584 min
Histogram: 1 0 0 0 0 0 0 0 0 1

Total # of neighbors = 5683
Ave neighs/atom = 5.65473
Neighbor list builds = 0
Dangerous builds = 0
Executing command: 'set region total property/atom Temp 600.000000 '
set region total property/atom Temp 600.000000 
Setting atom values ...
  1005 settings made for property/atom
LIGGGHTS finished

 timeStepFraction() = 1
update Ksl.internalField()
DILUPBiCGStab:  Solving for Temp, Initial residual = 0.0263146, Final residual = 8.74086e-09, No Iterations 2

Solver level total Eulerian momentum exchange:
  TotalForceImp:  (6.49249e-05 -0.0533443 -20.7838)
  Warning, these values are based on latest Ksl and Us but prev. iteration U!

total convective particle-fluid heat flux [W] (Eulerian) = 1658.24
diagonal:  Solving for rho, Initial residual = 0, Final residual = 0, No Iterations 0
PIMPLE: iteration 1
DILUPBiCGStab:  Solving for Ux, Initial residual = 0.00190043, Final residual = 1.56467e-06, No Iterations 1
DILUPBiCGStab:  Solving for Uy, Initial residual = 0.00132613, Final residual = 8.67296e-07, No Iterations 1
DILUPBiCGStab:  Solving for Uz, Initial residual = 0.000828085, Final residual = 5.34985e-07, No Iterations 1
DILUPBiCGStab:  Solving for h, Initial residual = 0.00328844, Final residual = 7.76156e-07, No Iterations 1
DICPCG:  Solving for p, Initial residual = 4.04661e-05, Final residual = 9.60396e-07, No Iterations 21
diagonal:  Solving for rho, Initial residual = 0, Final residual = 0, No Iterations 0
time step continuity errors : sum local = 7.63001e-07, global = 3.98535e-08, cumulative = -3.60888e-06
rho max/min : 1.188 1.188
DICPCG:  Solving for p, Initial residual = 1.97965e-06, Final residual = 6.98989e-07, No Iterations 1
diagonal:  Solving for rho, Initial residual = 0, Final residual = 0, No Iterations 0
time step continuity errors : sum local = 5.55194e-07, global = -3.2494e-08, cumulative = -3.64138e-06
rho max/min : 1.188 1.188
DICPCG:  Solving for p, Initial residual = 7.04431e-07, Final residual = 7.04431e-07, No Iterations 0
diagonal:  Solving for rho, Initial residual = 0, Final residual = 0, No Iterations 0
time step continuity errors : sum local = 5.59516e-07, global = -3.38588e-08, cumulative = -3.67524e-06
rho max/min : 1.188 1.188
DICPCG:  Solving for p, Initial residual = 7.04509e-07, Final residual = 7.04509e-07, No Iterations 0
diagonal:  Solving for rho, Initial residual = 0, Final residual = 0, No Iterations 0
time step continuity errors : sum local = 5.59578e-07, global = -3.38438e-08, cumulative = -3.70908e-06
rho max/min : 1.188 1.188
Min Temp, Max Temp = 262.993 285.381
Min Tsource, Max Tsource = -0 150.711
ExecutionTime = 2.24 s  ClockTime = 3 s

Time = 0.08

Courant Number mean: 0.0857151 max: 0.117388

 Coupling...
Starting up LIGGGHTS
Executing command: 'run 500    '
run 500    
Setting up run at Tue Oct  9 09:28:31 2018

Memory usage per processor = 9.13486 Mbytes
    Step    Atoms         KinEng            rke       heattran         Volume 
  157501     1005  3.1668714e-06  1.0095695e-05      840.47342          0.011 
CFD Coupling established at step 157600
CFD Coupling established at step 157700
CFD Coupling established at step 157800
CFD Coupling established at step 157900
CFD Coupling established at step 158000
  158000     1005  2.4610292e-06  9.6114697e-06      832.19881          0.011 
  158001     1005  2.4608792e-06  9.6113112e-06      832.18222          0.011 
Loop time of 0.137336 on 2 procs for 500 steps with 1005 atoms, finish time Tue Oct  9 09:28:31 2018


Pair  time (%) = 0.0744012 (54.1746)
Neigh time (%) = 0 (0)
Comm  time (%) = 0.0158771 (11.5608)
Outpt time (%) = 3.86021e-05 (0.0281078)
Other time (%) = 0.047019 (34.2365)

Nlocal:    502.5 ave 547 max 458 min
Histogram: 1 0 0 0 0 0 0 0 0 1
Nghost:    32 ave 34 max 30 min
Histogram: 1 0 0 0 0 0 0 0 0 1
Neighs:    2841 ave 3106 max 2576 min
Histogram: 1 0 0 0 0 0 0 0 0 1

Total # of neighbors = 5682
Ave neighs/atom = 5.65373
Neighbor list builds = 0
Dangerous builds = 0
Executing command: 'set region total property/atom Temp 600.000000 '
set region total property/atom Temp 600.000000 
Setting atom values ...
  1005 settings made for property/atom
LIGGGHTS finished

 timeStepFraction() = 1
update Ksl.internalField()
DILUPBiCGStab:  Solving for Temp, Initial residual = 0.0245069, Final residual = 7.95102e-09, No Iterations 2

Solver level total Eulerian momentum exchange:
  TotalForceImp:  (-1.08712e-05 -0.0531709 -20.7821)
  Warning, these values are based on latest Ksl and Us but prev. iteration U!

total convective particle-fluid heat flux [W] (Eulerian) = 1651.68
diagonal:  Solving for rho, Initial residual = 0, Final residual = 0, No Iterations 0
PIMPLE: iteration 1
DILUPBiCGStab:  Solving for Ux, Initial residual = 0.00190742, Final residual = 1.30413e-06, No Iterations 1
DILUPBiCGStab:  Solving for Uy, Initial residual = 0.00130821, Final residual = 9.7223e-07, No Iterations 1
DILUPBiCGStab:  Solving for Uz, Initial residual = 0.000723632, Final residual = 3.32283e-07, No Iterations 1
DILUPBiCGStab:  Solving for h, Initial residual = 0.0033006, Final residual = 7.67902e-07, No Iterations 1
DICPCG:  Solving for p, Initial residual = 3.50165e-05, Final residual = 9.73496e-07, No Iterations 9
diagonal:  Solving for rho, Initial residual = 0, Final residual = 0, No Iterations 0
time step continuity errors : sum local = 7.73227e-07, global = -6.43242e-08, cumulative = -3.77341e-06
rho max/min : 1.188 1.188
DICPCG:  Solving for p, Initial residual = 1.55129e-06, Final residual = 6.80936e-07, No Iterations 1
diagonal:  Solving for rho, Initial residual = 0, Final residual = 0, No Iterations 0
time step continuity errors : sum local = 5.40852e-07, global = -2.59467e-08, cumulative = -3.79935e-06
rho max/min : 1.188 1.188
DICPCG:  Solving for p, Initial residual = 6.85929e-07, Final residual = 6.85929e-07, No Iterations 0
diagonal:  Solving for rho, Initial residual = 0, Final residual = 0, No Iterations 0
time step continuity errors : sum local = 5.44818e-07, global = -2.46101e-08, cumulative = -3.82396e-06
rho max/min : 1.188 1.188
DICPCG:  Solving for p, Initial residual = 6.86181e-07, Final residual = 6.86181e-07, No Iterations 0
diagonal:  Solving for rho, Initial residual = 0, Final residual = 0, No Iterations 0
time step continuity errors : sum local = 5.45018e-07, global = -2.45788e-08, cumulative = -3.84854e-06
rho max/min : 1.188 1.188
Min Temp, Max Temp = 262.993 286.897
Min Tsource, Max Tsource = -0 150.708
ExecutionTime = 2.38 s  ClockTime = 3 s

Time = 0.085

Courant Number mean: 0.085734 max: 0.118316

 Coupling...
Starting up LIGGGHTS
Executing command: 'run 500    '
run 500    
Setting up run at Tue Oct  9 09:28:31 2018

Memory usage per processor = 9.13486 Mbytes
    Step    Atoms         KinEng            rke       heattran         Volume 
  158001     1005  2.4608792e-06  9.6113112e-06      840.47342          0.011 
CFD Coupling established at step 158100
CFD Coupling established at step 158200
CFD Coupling established at step 158300
CFD Coupling established at step 158400
CFD Coupling established at step 158500
  158501     1005  2.6493825e-06  9.6531901e-06      832.21503          0.011 
Loop time of 0.136731 on 2 procs for 500 steps with 1005 atoms, finish time Tue Oct  9 09:28:31 2018


Pair  time (%) = 0.0738404 (54.004)
Neigh time (%) = 0 (0)
Comm  time (%) = 0.0159158 (11.6402)
Outpt time (%) = 2.6119e-05 (0.0191024)
Other time (%) = 0.046949 (34.3367)

Nlocal:    502.5 ave 546 max 459 min
Histogram: 1 0 0 0 0 0 0 0 0 1
Nghost:    32 ave 33 max 31 min
Histogram: 1 0 0 0 0 0 0 0 0 1
Neighs:    2841.5 ave 3099 max 2584 min
Histogram: 1 0 0 0 0 0 0 0 0 1

Total # of neighbors = 5683
Ave neighs/atom = 5.65473
Neighbor list builds = 0
Dangerous builds = 0
Executing command: 'set region total property/atom Temp 600.000000 '
set region total property/atom Temp 600.000000 
Setting atom values ...
  1005 settings made for property/atom
LIGGGHTS finished

 timeStepFraction() = 1
update Ksl.internalField()
DILUPBiCGStab:  Solving for Temp, Initial residual = 0.0229627, Final residual = 5.6446e-07, No Iterations 2

Solver level total Eulerian momentum exchange:
  TotalForceImp:  (7.70528e-05 -0.0531548 -20.7836)
  Warning, these values are based on latest Ksl and Us but prev. iteration U!

total convective particle-fluid heat flux [W] (Eulerian) = 1645.26
diagonal:  Solving for rho, Initial residual = 0, Final residual = 0, No Iterations 0
PIMPLE: iteration 1
DILUPBiCGStab:  Solving for Ux, Initial residual = 0.00173506, Final residual = 1.1899e-06, No Iterations 1
DILUPBiCGStab:  Solving for Uy, Initial residual = 0.0011883, Final residual = 7.27811e-07, No Iterations 1
DILUPBiCGStab:  Solving for Uz, Initial residual = 0.000700784, Final residual = 4.57956e-07, No Iterations 1
DILUPBiCGStab:  Solving for h, Initial residual = 0.00330999, Final residual = 7.88311e-07, No Iterations 1
DICPCG:  Solving for p, Initial residual = 2.7699e-05, Final residual = 2.52864e-07, No Iterations 22
diagonal:  Solving for rho, Initial residual = 0, Final residual = 0, No Iterations 0
time step continuity errors : sum local = 2.01671e-07, global = 7.32912e-09, cumulative = -3.84121e-06
rho max/min : 1.188 1.188
DICPCG:  Solving for p, Initial residual = 9.78484e-07, Final residual = 9.78484e-07, No Iterations 0
diagonal:  Solving for rho, Initial residual = 0, Final residual = 0, No Iterations 0
time step continuity errors : sum local = 7.80494e-07, global = 9.97083e-09, cumulative = -3.83124e-06
rho max/min : 1.188 1.188
DICPCG:  Solving for p, Initial residual = 9.8943e-07, Final residual = 9.8943e-07, No Iterations 0
diagonal:  Solving for rho, Initial residual = 0, Final residual = 0, No Iterations 0
time step continuity errors : sum local = 7.89226e-07, global = 9.55045e-09, cumulative = -3.82169e-06
rho max/min : 1.188 1.188
DICPCG:  Solving for p, Initial residual = 9.87388e-07, Final residual = 9.87388e-07, No Iterations 0
diagonal:  Solving for rho, Initial residual = 0, Final residual = 0, No Iterations 0
time step continuity errors : sum local = 7.87597e-07, global = 9.4956e-09, cumulative = -3.8122e-06
rho max/min : 1.188 1.188
Min Temp, Max Temp = 262.994 288.399
Min Tsource, Max Tsource = -0 150.715
ExecutionTime = 2.53 s  ClockTime = 3 s

Time = 0.09

Courant Number mean: 0.0857545 max: 0.119169

 Coupling...
Starting up LIGGGHTS
Executing command: 'run 500    '
run 500    
Setting up run at Tue Oct  9 09:28:31 2018

Memory usage per processor = 9.13486 Mbytes
    Step    Atoms         KinEng            rke       heattran         Volume 
  158501     1005  2.6493825e-06  9.6531901e-06      840.47342          0.011 
CFD Coupling established at step 158600
CFD Coupling established at step 158700
CFD Coupling established at step 158800
CFD Coupling established at step 158900
CFD Coupling established at step 159000
  159000     1005  2.5415558e-06  9.5014931e-06      832.26356          0.011 
  159001     1005  2.5408059e-06  9.5009913e-06      832.24711          0.011 
Loop time of 0.13649 on 2 procs for 500 steps with 1005 atoms, finish time Tue Oct  9 09:28:31 2018


Pair  time (%) = 0.0744228 (54.5263)
Neigh time (%) = 0 (0)
Comm  time (%) = 0.014948 (10.9518)
Outpt time (%) = 4.05799e-05 (0.0297312)
Other time (%) = 0.0470782 (34.4922)

Nlocal:    502.5 ave 546 max 459 min
Histogram: 1 0 0 0 0 0 0 0 0 1
Nghost:    32 ave 33 max 31 min
[...]
rho max/min : 1.188 1.188
DICPCG:  Solving for p, Initial residual = 7.21678e-07, Final residual = 7.21678e-07, No Iterations 0
diagonal:  Solving for rho, Initial residual = 0, Final residual = 0, No Iterations 0
time step continuity errors : sum local = 5.81904e-07, global = -1.48493e-08, cumulative = -9.49937e-05
rho max/min : 1.188 1.188
DICPCG:  Solving for p, Initial residual = 7.21681e-07, Final residual = 7.21681e-07, No Iterations 0
diagonal:  Solving for rho, Initial residual = 0, Final residual = 0, No Iterations 0
time step continuity errors : sum local = 5.81907e-07, global = -1.48504e-08, cumulative = -9.50086e-05
rho max/min : 1.188 1.188
Min Temp, Max Temp = 263 385.058
Min Tsource, Max Tsource = -0 150.806
ExecutionTime = 44.12 s  ClockTime = 44 s

Time = 1.48

Courant Number mean: 0.0860466 max: 0.135747

 Coupling...
Starting up LIGGGHTS
Executing command: 'run 500    '
run 500    
Setting up run at Tue Oct  9 09:29:12 2018

Memory usage per processor = 10.3792 Mbytes
    Step    Atoms         KinEng            rke       heattran         Volume 
  297501     1005  1.4828597e-06  8.1374404e-06      840.47342          0.011 
CFD Coupling established at step 297600
CFD Coupling established at step 297700
CFD Coupling established at step 297800
CFD Coupling established at step 297900
CFD Coupling established at step 298000
  298000     1005  1.5169241e-06  8.3227232e-06      833.36748          0.011 
  298001     1005  1.5169836e-06  8.3230472e-06      833.35324          0.011 
Loop time of 0.143661 on 2 procs for 500 steps with 1005 atoms, finish time Tue Oct  9 09:29:13 2018


Pair  time (%) = 0.076763 (53.4333)
Neigh time (%) = 0 (0)
Comm  time (%) = 0.0183689 (12.7862)
Outpt time (%) = 5.79245e-05 (0.0403202)
Other time (%) = 0.0484714 (33.7401)

Nlocal:    502.5 ave 546 max 459 min
Histogram: 1 0 0 0 0 0 0 0 0 1
Nghost:    32 ave 33 max 31 min
Histogram: 1 0 0 0 0 0 0 0 0 1
Neighs:    2841 ave 3098 max 2584 min
Histogram: 1 0 0 0 0 0 0 0 0 1

Total # of neighbors = 5682
Ave neighs/atom = 5.65373
Neighbor list builds = 0
Dangerous builds = 0
Executing command: 'set region total property/atom Temp 600.000000 '
set region total property/atom Temp 600.000000 
Setting atom values ...
  1005 settings made for property/atom
LIGGGHTS finished

 timeStepFraction() = 1
update Ksl.internalField()
DILUPBiCGStab:  Solving for Temp, Initial residual = 4.48156e-06, Final residual = 2.47524e-08, No Iterations 1

Solver level total Eulerian momentum exchange:
  TotalForceImp:  (0.000360275 -0.0535183 -20.7814)
  Warning, these values are based on latest Ksl and Us but prev. iteration U!

total convective particle-fluid heat flux [W] (Eulerian) = 1424.04
diagonal:  Solving for rho, Initial residual = 0, Final residual = 0, No Iterations 0
PIMPLE: iteration 1
DILUPBiCGStab:  Solving for Ux, Initial residual = 8.28785e-06, Final residual = 8.28785e-06, No Iterations 0
DILUPBiCGStab:  Solving for Uy, Initial residual = 6.32184e-06, Final residual = 6.32184e-06, No Iterations 0
DILUPBiCGStab:  Solving for Uz, Initial residual = 5.24917e-07, Final residual = 5.24917e-07, No Iterations 0
DILUPBiCGStab:  Solving for h, Initial residual = 0.00689412, Final residual = 9.31185e-06, No Iterations 1
DICPCG:  Solving for p, Initial residual = 1.30102e-06, Final residual = 7.24341e-08, No Iterations 1
diagonal:  Solving for rho, Initial residual = 0, Final residual = 0, No Iterations 0
time step continuity errors : sum local = 5.8405e-08, global = -1.51722e-08, cumulative = -9.50237e-05
rho max/min : 1.188 1.188
DICPCG:  Solving for p, Initial residual = 6.9077e-08, Final residual = 6.9077e-08, No Iterations 0
diagonal:  Solving for rho, Initial residual = 0, Final residual = 0, No Iterations 0
time step continuity errors : sum local = 5.56981e-08, global = -1.52289e-08, cumulative = -9.5039e-05
rho max/min : 1.188 1.188
DICPCG:  Solving for p, Initial residual = 6.95855e-08, Final residual = 6.95855e-08, No Iterations 0
diagonal:  Solving for rho, Initial residual = 0, Final residual = 0, No Iterations 0
time step continuity errors : sum local = 5.61081e-08, global = -1.51987e-08, cumulative = -9.50542e-05
rho max/min : 1.188 1.188
DICPCG:  Solving for p, Initial residual = 6.96354e-08, Final residual = 6.96354e-08, No Iterations 0
diagonal:  Solving for rho, Initial residual = 0, Final residual = 0, No Iterations 0
time step continuity errors : sum local = 5.61484e-08, global = -1.51964e-08, cumulative = -9.50694e-05
rho max/min : 1.188 1.188
Min Temp, Max Temp = 263 385.057
Min Tsource, Max Tsource = -0 150.806
ExecutionTime = 44.27 s  ClockTime = 45 s

Time = 1.485

Courant Number mean: 0.0860467 max: 0.135747

 Coupling...
Starting up LIGGGHTS
Executing command: 'run 500    '
run 500    
Setting up run at Tue Oct  9 09:29:13 2018

Memory usage per processor = 10.3792 Mbytes
    Step    Atoms         KinEng            rke       heattran         Volume 
  298001     1005  1.5169836e-06  8.3230472e-06      840.47342          0.011 
CFD Coupling established at step 298100
CFD Coupling established at step 298200
CFD Coupling established at step 298300
CFD Coupling established at step 298400
CFD Coupling established at step 298500
  298501     1005   1.541904e-06  8.4608826e-06      833.35324          0.011 
Loop time of 0.141117 on 2 procs for 500 steps with 1005 atoms, finish time Tue Oct  9 09:29:13 2018


Pair  time (%) = 0.0752876 (53.3514)
Neigh time (%) = 0 (0)
Comm  time (%) = 0.0177321 (12.5656)
Outpt time (%) = 2.03809e-05 (0.0144426)
Other time (%) = 0.0480765 (34.0686)

Nlocal:    502.5 ave 546 max 459 min
Histogram: 1 0 0 0 0 0 0 0 0 1
Nghost:    32 ave 33 max 31 min
Histogram: 1 0 0 0 0 0 0 0 0 1
Neighs:    2841 ave 3098 max 2584 min
Histogram: 1 0 0 0 0 0 0 0 0 1

Total # of neighbors = 5682
Ave neighs/atom = 5.65373
Neighbor list builds = 0
Dangerous builds = 0
Executing command: 'set region total property/atom Temp 600.000000 '
set region total property/atom Temp 600.000000 
Setting atom values ...
  1005 settings made for property/atom
LIGGGHTS finished

 timeStepFraction() = 1
update Ksl.internalField()
DILUPBiCGStab:  Solving for Temp, Initial residual = 4.35029e-06, Final residual = 2.41885e-08, No Iterations 1

Solver level total Eulerian momentum exchange:
  TotalForceImp:  (0.000358452 -0.0535154 -20.7814)
  Warning, these values are based on latest Ksl and Us but prev. iteration U!

total convective particle-fluid heat flux [W] (Eulerian) = 1424.04
diagonal:  Solving for rho, Initial residual = 0, Final residual = 0, No Iterations 0
PIMPLE: iteration 1
DILUPBiCGStab:  Solving for Ux, Initial residual = 7.92238e-06, Final residual = 7.92238e-06, No Iterations 0
DILUPBiCGStab:  Solving for Uy, Initial residual = 6.03694e-06, Final residual = 6.03694e-06, No Iterations 0
DILUPBiCGStab:  Solving for Uz, Initial residual = 4.52607e-07, Final residual = 4.52607e-07, No Iterations 0
DILUPBiCGStab:  Solving for h, Initial residual = 0.00685847, Final residual = 9.38808e-06, No Iterations 1
DICPCG:  Solving for p, Initial residual = 6.27395e-07, Final residual = 6.27395e-07, No Iterations 0
diagonal:  Solving for rho, Initial residual = 0, Final residual = 0, No Iterations 0
time step continuity errors : sum local = 5.05882e-07, global = -1.45318e-08, cumulative = -9.50839e-05
rho max/min : 1.188 1.188
DICPCG:  Solving for p, Initial residual = 6.35374e-07, Final residual = 6.35374e-07, No Iterations 0
diagonal:  Solving for rho, Initial residual = 0, Final residual = 0, No Iterations 0
time step continuity errors : sum local = 5.12315e-07, global = -1.43873e-08, cumulative = -9.50983e-05
rho max/min : 1.188 1.188
DICPCG:  Solving for p, Initial residual = 6.35353e-07, Final residual = 6.35353e-07, No Iterations 0
diagonal:  Solving for rho, Initial residual = 0, Final residual = 0, No Iterations 0
time step continuity errors : sum local = 5.12299e-07, global = -1.43555e-08, cumulative = -9.51126e-05
rho max/min : 1.188 1.188
DICPCG:  Solving for p, Initial residual = 6.35357e-07, Final residual = 6.35357e-07, No Iterations 0
diagonal:  Solving for rho, Initial residual = 0, Final residual = 0, No Iterations 0
time step continuity errors : sum local = 5.12302e-07, global = -1.43547e-08, cumulative = -9.5127e-05
rho max/min : 1.188 1.188
Min Temp, Max Temp = 263 385.057
Min Tsource, Max Tsource = -0 150.806
ExecutionTime = 44.42 s  ClockTime = 45 s

Time = 1.49

Courant Number mean: 0.0860468 max: 0.135747

 Coupling...
Starting up LIGGGHTS
Executing command: 'run 500    '
run 500    
Setting up run at Tue Oct  9 09:29:13 2018

Memory usage per processor = 10.3792 Mbytes
    Step    Atoms         KinEng            rke       heattran         Volume 
  298501     1005   1.541904e-06  8.4608826e-06      840.47342          0.011 
CFD Coupling established at step 298600
CFD Coupling established at step 298700
CFD Coupling established at step 298800
CFD Coupling established at step 298900
CFD Coupling established at step 299000
  299000     1005  1.5577458e-06  8.5487926e-06      833.36748          0.011 
  299001     1005  1.5577685e-06  8.5489181e-06      833.35324          0.011 
Loop time of 0.144146 on 2 procs for 500 steps with 1005 atoms, finish time Tue Oct  9 09:29:13 2018


Pair  time (%) = 0.0768103 (53.2863)
Neigh time (%) = 0 (0)
Comm  time (%) = 0.0186761 (12.9564)
Outpt time (%) = 5.89545e-05 (0.040899)
Other time (%) = 0.0486011 (33.7165)

Nlocal:    502.5 ave 546 max 459 min
Histogram: 1 0 0 0 0 0 0 0 0 1
Nghost:    32 ave 33 max 31 min
Histogram: 1 0 0 0 0 0 0 0 0 1
Neighs:    2841 ave 3098 max 2584 min
Histogram: 1 0 0 0 0 0 0 0 0 1

Total # of neighbors = 5682
Ave neighs/atom = 5.65373
Neighbor list builds = 0
Dangerous builds = 0
Executing command: 'set region total property/atom Temp 600.000000 '
set region total property/atom Temp 600.000000 
Setting atom values ...
  1005 settings made for property/atom
LIGGGHTS finished

 timeStepFraction() = 1
update Ksl.internalField()
DILUPBiCGStab:  Solving for Temp, Initial residual = 4.22511e-06, Final residual = 2.3318e-08, No Iterations 1

Solver level total Eulerian momentum exchange:
  TotalForceImp:  (0.000357934 -0.0535141 -20.7814)
  Warning, these values are based on latest Ksl and Us but prev. iteration U!

total convective particle-fluid heat flux [W] (Eulerian) = 1424.04
diagonal:  Solving for rho, Initial residual = 0, Final residual = 0, No Iterations 0
PIMPLE: iteration 1
DILUPBiCGStab:  Solving for Ux, Initial residual = 7.20351e-06, Final residual = 7.20351e-06, No Iterations 0
DILUPBiCGStab:  Solving for Uy, Initial residual = 5.81086e-06, Final residual = 5.81086e-06, No Iterations 0
DILUPBiCGStab:  Solving for Uz, Initial residual = 5.02202e-07, Final residual = 5.02202e-07, No Iterations 0
DILUPBiCGStab:  Solving for h, Initial residual = 0.00682333, Final residual = 9.46174e-06, No Iterations 1
DICPCG:  Solving for p, Initial residual = 1.1498e-06, Final residual = 5.71337e-08, No Iterations 1
diagonal:  Solving for rho, Initial residual = 0, Final residual = 0, No Iterations 0
time step continuity errors : sum local = 4.60683e-08, global = -1.02914e-08, cumulative = -9.51373e-05
rho max/min : 1.188 1.188
DICPCG:  Solving for p, Initial residual = 5.41864e-08, Final residual = 5.41864e-08, No Iterations 0
diagonal:  Solving for rho, Initial residual = 0, Final residual = 0, No Iterations 0
time step continuity errors : sum local = 4.36918e-08, global = -1.01527e-08, cumulative = -9.51474e-05
rho max/min : 1.188 1.188
DICPCG:  Solving for p, Initial residual = 5.46369e-08, Final residual = 5.46369e-08, No Iterations 0
diagonal:  Solving for rho, Initial residual = 0, Final residual = 0, No Iterations 0
time step continuity errors : sum local = 4.4055e-08, global = -1.01742e-08, cumulative = -9.51576e-05
rho max/min : 1.188 1.188
DICPCG:  Solving for p, Initial residual = 5.46825e-08, Final residual = 5.46825e-08, No Iterations 0
diagonal:  Solving for rho, Initial residual = 0, Final residual = 0, No Iterations 0
time step continuity errors : sum local = 4.40918e-08, global = -1.01764e-08, cumulative = -9.51678e-05
rho max/min : 1.188 1.188
Min Temp, Max Temp = 263 385.056
Min Tsource, Max Tsource = -0 150.806
ExecutionTime = 44.57 s  ClockTime = 45 s

Time = 1.495

Courant Number mean: 0.0860467 max: 0.135747

 Coupling...
Starting up LIGGGHTS
Executing command: 'run 500    '
run 500    
Setting up run at Tue Oct  9 09:29:13 2018

Memory usage per processor = 10.3792 Mbytes
    Step    Atoms         KinEng            rke       heattran         Volume 
  299001     1005  1.5577685e-06  8.5489181e-06      840.47342          0.011 
CFD Coupling established at step 299100
CFD Coupling established at step 299200
CFD Coupling established at step 299300
CFD Coupling established at step 299400
CFD Coupling established at step 299500
  299501     1005  1.5643636e-06  8.5860953e-06      833.35325          0.011 
Loop time of 0.142241 on 2 procs for 500 steps with 1005 atoms, finish time Tue Oct  9 09:29:13 2018


Pair  time (%) = 0.0756161 (53.1606)
Neigh time (%) = 0 (0)
Comm  time (%) = 0.0186551 (13.1151)
Outpt time (%) = 1.9849e-05 (0.0139545)
Other time (%) = 0.04795 (33.7104)

Nlocal:    502.5 ave 546 max 459 min
Histogram: 1 0 0 0 0 0 0 0 0 1
Nghost:    32 ave 33 max 31 min
Histogram: 1 0 0 0 0 0 0 0 0 1
Neighs:    2841 ave 3098 max 2584 min
Histogram: 1 0 0 0 0 0 0 0 0 1

Total # of neighbors = 5682
Ave neighs/atom = 5.65373
Neighbor list builds = 0
Dangerous builds = 0
Executing command: 'set region total property/atom Temp 600.000000 '
set region total property/atom Temp 600.000000 
Setting atom values ...
  1005 settings made for property/atom
LIGGGHTS finished

 timeStepFraction() = 1
update Ksl.internalField()
DILUPBiCGStab:  Solving for Temp, Initial residual = 4.12211e-06, Final residual = 2.21444e-08, No Iterations 1

Solver level total Eulerian momentum exchange:
  TotalForceImp:  (0.000359222 -0.0535133 -20.7814)
  Warning, these values are based on latest Ksl and Us but prev. iteration U!

total convective particle-fluid heat flux [W] (Eulerian) = 1424.03
diagonal:  Solving for rho, Initial residual = 0, Final residual = 0, No Iterations 0
PIMPLE: iteration 1
DILUPBiCGStab:  Solving for Ux, Initial residual = 6.10556e-06, Final residual = 6.10556e-06, No Iterations 0
DILUPBiCGStab:  Solving for Uy, Initial residual = 5.17512e-06, Final residual = 5.17512e-06, No Iterations 0
DILUPBiCGStab:  Solving for Uz, Initial residual = 4.11112e-07, Final residual = 4.11112e-07, No Iterations 0
DILUPBiCGStab:  Solving for h, Initial residual = 0.00678844, Final residual = 9.53255e-06, No Iterations 1
DICPCG:  Solving for p, Initial residual = 5.43021e-07, Final residual = 5.43021e-07, No Iterations 0
diagonal:  Solving for rho, Initial residual = 0, Final residual = 0, No Iterations 0
time step continuity errors : sum local = 4.37849e-07, global = -7.37966e-09, cumulative = -9.51752e-05
rho max/min : 1.188 1.188
DICPCG:  Solving for p, Initial residual = 5.50156e-07, Final residual = 5.50156e-07, No Iterations 0
diagonal:  Solving for rho, Initial residual = 0, Final residual = 0, No Iterations 0
time step continuity errors : sum local = 4.43602e-07, global = -7.41278e-09, cumulative = -9.51826e-05
rho max/min : 1.188 1.188
DICPCG:  Solving for p, Initial residual = 5.50143e-07, Final residual = 5.50143e-07, No Iterations 0
diagonal:  Solving for rho, Initial residual = 0, Final residual = 0, No Iterations 0
time step continuity errors : sum local = 4.43592e-07, global = -7.43617e-09, cumulative = -9.519e-05
rho max/min : 1.188 1.188
DICPCG:  Solving for p, Initial residual = 5.50147e-07, Final residual = 5.50147e-07, No Iterations 0
diagonal:  Solving for rho, Initial residual = 0, Final residual = 0, No Iterations 0
time step continuity errors : sum local = 4.43595e-07, global = -7.43711e-09, cumulative = -9.51975e-05
rho max/min : 1.188 1.188
Min Temp, Max Temp = 263 385.056
Min Tsource, Max Tsource = -0 150.806
ExecutionTime = 44.72 s  ClockTime = 45 s

Time = 1.5

Courant Number mean: 0.0860467 max: 0.135747

 Coupling...
Starting up LIGGGHTS
Executing command: 'run 500    '
run 500    
Setting up run at Tue Oct  9 09:29:13 2018

Memory usage per processor = 10.3792 Mbytes
    Step    Atoms         KinEng            rke       heattran         Volume 
  299501     1005  1.5643636e-06  8.5860953e-06      840.47342          0.011 
CFD Coupling established at step 299600
CFD Coupling established at step 299700
CFD Coupling established at step 299800
CFD Coupling established at step 299900
CFD Coupling established at step 300000
  300000     1005  1.5614975e-06  8.5721295e-06      833.36749          0.011 
  300001     1005  1.5614824e-06  8.5720502e-06      833.35325          0.011 
Loop time of 0.146204 on 2 procs for 500 steps with 1005 atoms, finish time Tue Oct  9 09:29:13 2018


Pair  time (%) = 0.0763622 (52.2299)
Neigh time (%) = 0 (0)
Comm  time (%) = 0.0190207 (13.0097)
Outpt time (%) = 0.00262717 (1.79692)
Other time (%) = 0.0481939 (32.9635)

Nlocal:    502.5 ave 546 max 459 min
Histogram: 1 0 0 0 0 0 0 0 0 1
Nghost:    32 ave 33 max 31 min
Histogram: 1 0 0 0 0 0 0 0 0 1
Neighs:    2841 ave 3098 max 2584 min
Histogram: 1 0 0 0 0 0 0 0 0 1

Total # of neighbors = 5682
Ave neighs/atom = 5.65373
Neighbor list builds = 0
Dangerous builds = 0
Executing command: 'set region total property/atom Temp 600.000000 '
set region total property/atom Temp 600.000000 
Setting atom values ...
  1005 settings made for property/atom
LIGGGHTS finished

 timeStepFraction() = 1
update Ksl.internalField()
DILUPBiCGStab:  Solving for Temp, Initial residual = 4.01693e-06, Final residual = 2.07458e-08, No Iterations 1

Solver level total Eulerian momentum exchange:
  TotalForceImp:  (0.000359813 -0.0535126 -20.7814)
  Warning, these values are based on latest Ksl and Us but prev. iteration U!

total convective particle-fluid heat flux [W] (Eulerian) = 1424.03
diagonal:  Solving for rho, Initial residual = 0, Final residual = 0, No Iterations 0
PIMPLE: iteration 1
DILUPBiCGStab:  Solving for Ux, Initial residual = 5.99344e-06, Final residual = 5.99344e-06, No Iterations 0
DILUPBiCGStab:  Solving for Uy, Initial residual = 4.99277e-06, Final residual = 4.99277e-06, No Iterations 0
DILUPBiCGStab:  Solving for Uz, Initial residual = 4.35164e-07, Final residual = 4.35164e-07, No Iterations 0
DILUPBiCGStab:  Solving for h, Initial residual = 0.0067537, Final residual = 9.60082e-06, No Iterations 1
DICPCG:  Solving for p, Initial residual = 9.95477e-07, Final residual = 9.95477e-07, No Iterations 0
diagonal:  Solving for rho, Initial residual = 0, Final residual = 0, No Iterations 0
time step continuity errors : sum local = 8.02673e-07, global = -5.47769e-09, cumulative = -9.52029e-05
rho max/min : 1.188 1.188
DICPCG:  Solving for p, Initial residual = 1.00111e-06, Final residual = 4.74895e-08, No Iterations 1
diagonal:  Solving for rho, Initial residual = 0, Final residual = 0, No Iterations 0
time step continuity errors : sum local = 3.82916e-08, global = -8.40796e-09, cumulative = -9.52113e-05
rho max/min : 1.188 1.188
DICPCG:  Solving for p, Initial residual = 4.9257e-08, Final residual = 4.9257e-08, No Iterations 0
diagonal:  Solving for rho, Initial residual = 0, Final residual = 0, No Iterations 0
time step continuity errors : sum local = 3.97169e-08, global = -8.2775e-09, cumulative = -9.52196e-05
rho max/min : 1.188 1.188
DICPCG:  Solving for p, Initial residual = 4.99588e-08, Final residual = 4.99588e-08, No Iterations 0
diagonal:  Solving for rho, Initial residual = 0, Final residual = 0, No Iterations 0
time step continuity errors : sum local = 4.02827e-08, global = -8.23153e-09, cumulative = -9.52279e-05
rho max/min : 1.188 1.188
Min Temp, Max Temp = 263 385.056
Min Tsource, Max Tsource = -0 150.806
ExecutionTime = 44.88 s  ClockTime = 45 s

End

Finalising parallel run
