
//   run_parallel_rhoCfdemSolverPimple_ErgunTestMPI_CFDDEM   //

/home/eadaymo/CFDEM/eadaymo-KIT-PUBLIC-5.x/run/tutorials/rhoCfdemSolverPimple/ErgunTestMPI/CFD

/*---------------------------------------------------------------------------*\
| =========                 |                                                 |
| \\      /  F ield         | OpenFOAM: The Open Source CFD Toolbox           |
|  \\    /   O peration     | Version:  5.x                                   |
|   \\  /    A nd           | Web:      www.OpenFOAM.org                      |
|    \\/     M anipulation  |                                                 |
\*---------------------------------------------------------------------------*/
Build  : 5.x-7f7d351b741b
Exec   : rhoCfdemSolverPimple -parallel
Date   : Oct 09 2018
Time   : 09:31:46
Host   : "langmuir"
PID    : 17448
I/O    : uncollated
Case   : /home/eadaymo/CFDEM/eadaymo-KIT-PUBLIC-5.x/run/tutorials/rhoCfdemSolverPimple/ErgunTestMPI/CFD
nProcs : 4
Slaves : 
3
(
"langmuir.17449"
"langmuir.17450"
"langmuir.17451"
)

Pstream initialized with:
    floatTransfer      : 0
    nProcsSimpleSum    : 0
    commsType          : nonBlocking
    polling iterations : 0
sigFpe : Enabling floating point exception trapping (FOAM_SIGFPE).
fileModificationChecking : Monitoring run-time modified files using timeStampMaster (fileModificationSkew 10)
allowSystemOperations : Allowing user-supplied system call operations

// * * * * * * * * * * * * * * * * * * * * * * * * * * * * * * * * * * * * * //
Create time

Create mesh for time = 0


PIMPLE: Operating solver in PISO mode

Reading thermophysical properties

Selecting thermodynamics package 
{
    type            heRhoThermo;
    mixture         pureMixture;
    transport       const;
    thermo          hConst;
    equationOfState rhoConst;
    specie          specie;
    energy          sensibleEnthalpy;
}

Reading physical velocity field U
Note: only if voidfraction at boundary is 1, U is superficial velocity!!!


Reading momentum exchange field Ksl


Reading voidfraction field voidfraction = (Vgas/Vparticle)

Reading particle velocity field Us

Reading/calculating face flux field phi

Generating interstitial face flux field phiByVoidfraction

Creating turbulence model

Selecting turbulence model type laminar
Selecting laminar stress model Stokes
Creating field DpDt

Creating field kinetic energy K

No MRF models present

No finite volume options present


Reading g
Selecting locateModel engine
Selecting dataExchangeModel twoWayMPI
Starting up LIGGGHTS for first time execution
Executing input script '../DEM/in.liggghts_run'
LIGGGHTS (Version LIGGGHTS-PUBLIC 3.8.0, compiled 2018-05-12-08:38:37 by eadaymo, git commit unknown)
log             ../DEM/log.liggghts
thermo_log      ../DEM/post/thermo.txt

atom_style      granular
atom_modify     map array
communicate     single vel yes

boundary        m m m
newton          off

units           si
processors      2 2 1

# read the restart file
read_restart    ../DEM/post/restart/liggghts.restart
Reading restart file ...
WARNING: Restart file version does not match LIGGGHTS version (../read_restart.cpp:507)
   --> restart file = Version LIGGGHTS-PUBLIC 3.8.0, compiled 2018-05-12-08:33:06 by eadaymo, git commit unknown
   --> LIGGGHTS = Version LIGGGHTS-PUBLIC 3.8.0, compiled 2018-05-12-08:38:37 by eadaymo, git commit unknown
version 3 8
version 3 8
version 3 8
version 3 8
WARNING: Restart file used different 3d processor grid (../read_restart.cpp:587)
  orthogonal box = (-0.015 -0.015 -0.001) to (0.015 0.015 0.0554)
  2 by 2 by 1 MPI processor grid
  10000 atoms

neighbor        0.0005 bin
neigh_modify    delay 0

# Material properties required for granular pair styles

fix         m1 all property/global youngsModulus peratomtype 5.e6
fix         m2 all property/global poissonsRatio peratomtype 0.45
fix         m3 all property/global coefficientRestitution peratomtypepair 1 0.3
fix         m4 all property/global coefficientFriction peratomtypepair 1 0.5

# pair style
pair_style  gran model hertz tangential history # Hertzian without cohesion
pair_coeff  * *

# timestep, gravity
timestep    0.00001
fix         gravi all gravity 9.81 vector 0.0 0.0 -1.0

# walls
fix         zwalls1 all wall/gran model hertz tangential history primitive type 1  zplane 0.0
Resetting global state of Fix history_zwalls1 Style property/atom from restart file info
Resetting per-atom state of Fix history_zwalls1 Style property/atom from restart file info
fix         zwalls2 all wall/gran model hertz tangential history primitive type 1  zplane 0.0553
Resetting global state of Fix history_zwalls2 Style property/atom from restart file info
Resetting per-atom state of Fix history_zwalls2 Style property/atom from restart file info
fix         cylwalls all wall/gran model hertz tangential history primitive type 1 zcylinder 0.01385 0. 0.
Resetting global state of Fix history_cylwalls Style property/atom from restart file info
Resetting per-atom state of Fix history_cylwalls Style property/atom from restart file info

# cfd coupling
fix         cfd all couple/cfd couple_every 100 mpi
couple_every as specified in LIGGGHTS is overriden by calling external program (../fix_cfd_coupling.cpp:114)
fix         cfd2 all couple/cfd/force/implicit
#fix         cfd2 all couple/cfd/force/accumulator RongDrag 10 1.5e-3
#fix         cfd2 all couple/cfd/force/implicit/accumulated #CrankNicolson 0.5

# apply nve integration to all particles that are inserted as single particles
fix         integr all nve/sphere

# center of mass
compute     centerOfMass all com

# compute explicit dragforce
compute     explDrag all reduce update_on_run_end yes sum f_dragforce[1] f_dragforce[2] f_dragforce[3]

# sum of explicit and implicit drag force given from CFD to DEM
variable    totalDragX equal f_cfd2[1]
variable    totalDragY equal f_cfd2[2]
variable    totalDragZ equal f_cfd2[3]

# explicit drag force given from CFD to DEM
variable    explicitDragX equal c_explDrag[1]
variable    explicitDragY equal c_explDrag[2]
variable    explicitDragZ equal c_explDrag[3]

variable    time equal step*dt
fix         extra all print 10 "${time} ${explicitDragX} ${explicitDragY} ${explicitDragZ} ${totalDragX} ${totalDragY} ${totalDragZ}" file ../DEM/post/forces.txt title "# time expDrag(X Y Z) totDrag(X Y Z)"

# screen output
compute         rke all erotate/sphere
thermo_style    custom step atoms ke c_rke vol c_centerOfMass[3] c_explDrag[1] c_explDrag[2] c_explDrag[3] f_cfd2[1] f_cfd2[2] f_cfd2[3]
thermo          10
thermo_modify   lost ignore norm no
compute_modify  thermo_temp dynamic yes
WARNING: Changing thermo_temp compute object. This object is deprecated and will be removed in the future. (../compute.cpp:161)

dump            dmp all custom 5000 ../DEM/post/dump*.liggghts_run id type x y z vx vy vz fx fy fz f_dragforce[1] f_dragforce[2] f_dragforce[3] radius
#dump            dmp all custom/vtk 5000 ../DEM/post/dump_liggghts_run.*.vtk id type x y z vx vy vz fx fy fz f_dragforce[1] f_dragforce[2] f_dragforce[3] radius

run             0
Resetting global state of Fix contacthistory Style contacthistory from restart file info
Resetting per-atom state of Fix contacthistory Style contacthistory from restart file info
Setting up run at Tue Oct  9 09:31:46 2018

Memory usage per processor = 11.7592 Mbytes
    Step    Atoms         KinEng            rke         Volume       centerOf       explDrag       explDrag       explDrag        cfd2[1]        cfd2[2]        cfd2[3] 
   10000    10000  7.4569765e-08  6.0588027e-08      5.076e-05   0.0075796412              0              0              0              0              0              0 
Loop time of 3.40948e-06 on 4 procs for 0 steps with 10000 atoms, finish time Tue Oct  9 09:31:46 2018


Pair  time (%) = 0 (0)
Neigh time (%) = 0 (0)
Comm  time (%) = 0 (0)
Outpt time (%) = 0 (0)
Other time (%) = 3.40948e-06 (100)

Nlocal:    2500 ave 2510 max 2494 min
Histogram: 1 1 0 1 0 0 0 0 0 1
Nghost:    736.75 ave 741 max 727 min
Histogram: 1 0 0 0 0 0 0 0 1 2
Neighs:    17459 ave 17527 max 17428 min
Histogram: 2 0 1 0 0 0 0 0 0 1

Total # of neighbors = 69836
Ave neighs/atom = 6.9836
Neighbor list builds = 0
Dangerous builds = 0
Selecting IOModel basicIO
Selecting probeModel off
Selecting voidFractionModel divided
Selecting averagingModel dense
Selecting clockModel off
start clock measurement at t >0.001
Selecting smoothingModel off
Selecting meshMotionModel noMeshMotion

CFDEMcoupling version: cfdem-3.8.1
, compatible to LIGGGHTS version: 3.8.0
, compatible to OF version and build: 5.x-commit-538044ac05c4672b37c7df607dca1116fa88df88

You are currently using:
OF version: 5.x
OF build: 5.x-7f7d351b741b
CFDEM build: 

cg is set to: 1
LIGGGHTS hosts 1 atom types.
If BC are important, please provide volScalarFields -imp/expParticleForces-
ignoring ddt(voidfraction)
Selecting momCoupleModel implicitCouple

implicit momentum exchange field calculate if alphaP larger than : 1
Selecting forceModel gradPForce
 Selecting forceSubModel ImEx
 reading switches:
  looking for treatForceExplicit ...  not found in dict, using default. treatForceExplicit = true
  looking for verbose ...  not found in dict, using default. verbose = false
  looking for interpolation ...  found in dict. interpolation = true

Selecting forceModel viscForce
 Selecting forceSubModel ImEx
 reading switches:
  looking for treatForceExplicit ...  not found in dict, using default. treatForceExplicit = true
  looking for verbose ...  not found in dict, using default. verbose = false
  looking for interpolation ...  found in dict. interpolation = true
  looking for scalarViscosity ...  not found in dict, using default. scalarViscosity = false

Selecting forceModel KochHillDrag
 Selecting forceSubModel ImEx
 reading switches:
  looking for treatForceExplicit ...  not found in dict, using default. treatForceExplicit = false
  looking for implForceDEM ...  found in dict. implForceDEM = true
  looking for verbose ...  not found in dict, using default. verbose = false
  looking for interpolation ...  found in dict. interpolation = true
  looking for implForceDEMaccumulated ...  not found in dict, using default. implForceDEMaccumulated = false
  looking for scalarViscosity ...  not found in dict, using default. scalarViscosity = false

Selecting forceModel fieldStore
Creating field stored_U
Selecting liggghtsCommandModel runLiggghts ,provide dicts, numbered from 0 to n
Selecting liggghtsCommandModel writeLiggghts ,provide dicts, numbered from 0 to n
writeLiggghts: A restart file writeName_write_restart ../DEM/post/restart/liggghts.restartCFDEM is written.
solving volume averaged Navier Stokes equations of type A
check if Archimedes lift is necessary (depends on pressure formulation)


Starting time loop

--> FOAM Warning : 
    From function void Foam::timeControl::read(const Foam::dictionary&)
    in file db/functionObjects/timeControl/timeControl.C at line 89
    Reading "/home/eadaymo/CFDEM/eadaymo-KIT-PUBLIC-5.x/run/tutorials/rhoCfdemSolverPimple/ErgunTestMPI/CFD/system/controlDict.functions.probes" from line 63 to line 79
    Using deprecated 'outputControl'
    Please use 'writeControl' with 'writeInterval'
--> FOAM Warning : 
    From function void Foam::timeControl::read(const Foam::dictionary&)
    in file db/functionObjects/timeControl/timeControl.C at line 89
    Reading "/home/eadaymo/CFDEM/eadaymo-KIT-PUBLIC-5.x/run/tutorials/rhoCfdemSolverPimple/ErgunTestMPI/CFD/system/controlDict.functions.volFlow_inlet" from line 84 to line 97
    Using deprecated 'outputControl'
    Please use 'writeControl' with 'writeInterval'
surfaceFieldValue volFlow_inlet:
    total faces  = 192
    total area   = 0.000594448


--> FOAM Warning : 
    From function void Foam::timeControl::read(const Foam::dictionary&)
    in file db/functionObjects/timeControl/timeControl.C at line 89
    Reading "/home/eadaymo/CFDEM/eadaymo-KIT-PUBLIC-5.x/run/tutorials/rhoCfdemSolverPimple/ErgunTestMPI/CFD/system/controlDict.functions.volFlow_outlet" from line 102 to line 115
    Using deprecated 'outputControl'
    Please use 'writeControl' with 'writeInterval'
surfaceFieldValue volFlow_outlet:
    total faces  = 192
    total area   = 0.000594448


--> FOAM Warning : 
    From function void Foam::timeControl::read(const Foam::dictionary&)
    in file db/functionObjects/timeControl/timeControl.C at line 89
    Reading "/home/eadaymo/CFDEM/eadaymo-KIT-PUBLIC-5.x/run/tutorials/rhoCfdemSolverPimple/ErgunTestMPI/CFD/system/controlDict.functions.volFlow_wall" from line 120 to line 133
    Using deprecated 'outputControl'
    Please use 'writeControl' with 'writeInterval'
surfaceFieldValue volFlow_wall:
    total faces  = 768
    total area   = 0.00478725


Time = 0.0005

Courant Number mean: 9.04159e-06 max: 0.000216998

 Coupling...
Starting up LIGGGHTS
Executing command: 'run 50    '
run 50    
Setting up run at Tue Oct  9 09:31:46 2018

Memory usage per processor = 11.7595 Mbytes
    Step    Atoms         KinEng            rke         Volume       centerOf       explDrag       explDrag       explDrag        cfd2[1]        cfd2[2]        cfd2[3] 
   10000    10000  7.4569765e-08  6.0588027e-08      5.076e-05   0.0075796412              0              0              0              0              0              0 
0.1001 0 0 0 0 0 0
   10010    10000  7.3779817e-08  5.9222481e-08      5.076e-05   0.0075796308              0              0              0              0              0              0 
0.1002 0 0 0 0 0 0
   10020    10000   7.365705e-08  5.8864429e-08      5.076e-05   0.0075796209              0              0              0              0              0              0 
0.1003 0 0 0 0 0 0
   10030    10000  7.3707065e-08  5.8392782e-08      5.076e-05   0.0075796117              0              0              0              0              0              0 
0.1004 0 0 0 0 0 0
   10040    10000   7.385579e-08  5.8104849e-08      5.076e-05   0.0075796029              0              0              0              0              0              0 
0.1005 0 0 0 0 0 0
   10050    10000  7.4058977e-08  5.7901882e-08      5.076e-05   0.0075795946              0              0              0              0              0              0 
Loop time of 0.0960784 on 4 procs for 50 steps with 10000 atoms, finish time Tue Oct  9 09:31:46 2018


Pair  time (%) = 0.0537436 (55.9373)
Neigh time (%) = 0 (0)
Comm  time (%) = 0.00353746 (3.68185)
Outpt time (%) = 0.000777684 (0.809426)
Other time (%) = 0.0380196 (39.5715)

Nlocal:    2500 ave 2510 max 2494 min
Histogram: 1 1 0 1 0 0 0 0 0 1
Nghost:    736.75 ave 741 max 727 min
Histogram: 1 0 0 0 0 0 0 0 1 2
Neighs:    17459 ave 17527 max 17428 min
Histogram: 2 0 1 0 0 0 0 0 0 1

Total # of neighbors = 69836
Ave neighs/atom = 6.9836
Neighbor list builds = 0
Dangerous builds = 0
LIGGGHTS finished

 timeStepFraction() = 1

Solver level total Eulerian momentum exchange:
  TotalForceImp:  (2.67044e-05 2.31697e-05 -8.04361e-06)
  Warning, these values are based on latest Ksl and Us but prev. iteration U!

diagonal:  Solving for rho, Initial residual = 0, Final residual = 0, No Iterations 0
PIMPLE: iteration 1
DILUPBiCGStab:  Solving for Ux, Initial residual = 1, Final residual = 3.52366e-07, No Iterations 2
DILUPBiCGStab:  Solving for Uy, Initial residual = 1, Final residual = 2.86608e-07, No Iterations 2
DILUPBiCGStab:  Solving for Uz, Initial residual = 1, Final residual = 4.04369e-07, No Iterations 2
DILUPBiCGStab:  Solving for h, Initial residual = 0.514301, Final residual = 8.2896e-06, No Iterations 2
DICPCG:  Solving for p, Initial residual = 1, Final residual = 0.00984968, No Iterations 29
diagonal:  Solving for rho, Initial residual = 0, Final residual = 0, No Iterations 0
time step continuity errors : sum local = 4.64718e-06, global = 2.3699e-07, cumulative = 2.3699e-07
rho max/min : 10 10
DICPCG:  Solving for p, Initial residual = 0.00189803, Final residual = 1.39767e-05, No Iterations 28
diagonal:  Solving for rho, Initial residual = 0, Final residual = 0, No Iterations 0
time step continuity errors : sum local = 5.21968e-07, global = 1.70643e-08, cumulative = 2.54054e-07
rho max/min : 10 10
DICPCG:  Solving for p, Initial residual = 0.000130785, Final residual = 9.22805e-07, No Iterations 26
diagonal:  Solving for rho, Initial residual = 0, Final residual = 0, No Iterations 0
time step continuity errors : sum local = 3.24233e-08, global = 2.14882e-09, cumulative = 2.56203e-07
rho max/min : 10 10
DICPCG:  Solving for p, Initial residual = 1.98331e-05, Final residual = 9.12627e-07, No Iterations 20
diagonal:  Solving for rho, Initial residual = 0, Final residual = 0, No Iterations 0
time step continuity errors : sum local = 3.20548e-08, global = 3.79119e-09, cumulative = 2.59994e-07
rho max/min : 10 10
ExecutionTime = 0.23 s  ClockTime = 0 s

surfaceFieldValue volFlow_inlet write:
    sum(inlet) of phi = -1.24922e-05

surfaceFieldValue volFlow_outlet write:
    sum(outlet) of phi = 1.24924e-05

surfaceFieldValue volFlow_wall write:
    sum(wall) of phi = 3.39298e-23

Time = 0.001

Courant Number mean: 0.000501205 max: 0.00251357

 Coupling...
Starting up LIGGGHTS
Executing command: 'run 50    '
run 50    
Setting up run at Tue Oct  9 09:31:46 2018

Memory usage per processor = 11.7595 Mbytes
    Step    Atoms         KinEng            rke         Volume       centerOf       explDrag       explDrag       explDrag        cfd2[1]        cfd2[2]        cfd2[3] 
   10050    10000  7.4058977e-08  5.7901882e-08      5.076e-05   0.0075795946  1.4687637e-16  2.4085321e-16  1.4500331e-06 -1.8977086e-05 -2.4378334e-05  4.9770098e-05 
0.1006 1.46876371452507e-16 2.40853212166406e-16 1.45003306138127e-06 -1.62347052215548e-05 -1.79427255899905e-05 4.35651761278451e-05
   10060    10000  7.2629191e-08  5.7199596e-08      5.076e-05   0.0075795868  1.4687637e-16  2.4085321e-16  1.4500331e-06 -1.6234705e-05 -1.7942726e-05  4.3565176e-05 
0.1007 1.46876371452507e-16 2.40853212166406e-16 1.45003306138127e-06 -1.3302510294082e-05 -1.19099631100251e-05 3.82212436521477e-05
   10070    10000  7.1615341e-08  5.6787376e-08      5.076e-05   0.0075795793  1.4687637e-16  2.4085321e-16  1.4500331e-06  -1.330251e-05 -1.1909963e-05  3.8221244e-05 
0.1008 1.46876371452507e-16 2.40853212166406e-16 1.45003306138127e-06 -1.03322918652994e-05 -6.74147155951626e-06 3.41909327881912e-05
   10080    10000   6.988835e-08  5.6124026e-08      5.076e-05    0.007579572  1.4687637e-16  2.4085321e-16  1.4500331e-06 -1.0332292e-05 -6.7414716e-06  3.4190933e-05 
0.1009 1.46876371452507e-16 2.40853212166406e-16 1.45003306138127e-06 -6.37969627531091e-06 -2.47522834092631e-06 3.23072471229777e-05
   10090    10000  6.7949915e-08  5.5539189e-08      5.076e-05   0.0075795649  1.4687637e-16  2.4085321e-16  1.4500331e-06 -6.3796963e-06 -2.4752283e-06  3.2307247e-05 
CFD Coupling established at step 10100
0.101 1.46876371452507e-16 2.40853212166406e-16 1.45003306138127e-06 -2.96838578700159e-06 1.11434678699604e-06 3.17594536942485e-05
   10100    10000  6.6596708e-08  5.5080125e-08      5.076e-05    0.007579558  1.4687637e-16  2.4085321e-16  1.4500331e-06 -2.9683858e-06  1.1143468e-06  3.1759454e-05 
Loop time of 0.0598182 on 4 procs for 50 steps with 10000 atoms, finish time Tue Oct  9 09:31:46 2018


Pair  time (%) = 0.0430904 (72.0356)
Neigh time (%) = 0 (0)
Comm  time (%) = 0.00283521 (4.73971)
Outpt time (%) = 0.000615768 (1.0294)
Other time (%) = 0.0132768 (22.1953)

Nlocal:    2500 ave 2510 max 2494 min
Histogram: 1 1 0 1 0 0 0 0 0 1
Nghost:    736.75 ave 741 max 727 min
Histogram: 1 0 0 0 0 0 0 0 1 2
Neighs:    17458.8 ave 17526 max 17425 min
Histogram: 2 0 0 1 0 0 0 0 0 1

Total # of neighbors = 69835
Ave neighs/atom = 6.9835
Neighbor list builds = 0
Dangerous builds = 0
LIGGGHTS finished

 timeStepFraction() = 1

Solver level total Eulerian momentum exchange:
  TotalForceImp:  (1.435e-05 -6.72233e-05 -0.00769025)
  Warning, these values are based on latest Ksl and Us but prev. iteration U!

diagonal:  Solving for rho, Initial residual = 0, Final residual = 0, No Iterations 0
PIMPLE: iteration 1
DILUPBiCGStab:  Solving for Ux, Initial residual = 0.223889, Final residual = 9.97639e-06, No Iterations 1
DILUPBiCGStab:  Solving for Uy, Initial residual = 0.239274, Final residual = 8.4248e-06, No Iterations 1
DILUPBiCGStab:  Solving for Uz, Initial residual = 0.288376, Final residual = 2.28291e-06, No Iterations 2
DILUPBiCGStab:  Solving for h, Initial residual = 1, Final residual = 4.23817e-06, No Iterations 2
DICPCG:  Solving for p, Initial residual = 0.0140695, Final residual = 0.000127335, No Iterations 27
diagonal:  Solving for rho, Initial residual = 0, Final residual = 0, No Iterations 0
time step continuity errors : sum local = 4.51209e-06, global = 1.20148e-07, cumulative = 3.80143e-07
rho max/min : 10 10
DICPCG:  Solving for p, Initial residual = 0.00192046, Final residual = 1.14697e-05, No Iterations 31
diagonal:  Solving for rho, Initial residual = 0, Final residual = 0, No Iterations 0
time step continuity errors : sum local = 3.02815e-07, global = -3.44871e-10, cumulative = 3.79798e-07
rho max/min : 10 10
DICPCG:  Solving for p, Initial residual = 0.000101796, Final residual = 8.49055e-07, No Iterations 27
diagonal:  Solving for rho, Initial residual = 0, Final residual = 0, No Iterations 0
time step continuity errors : sum local = 2.38088e-08, global = -3.85439e-10, cumulative = 3.79412e-07
rho max/min : 10 10
DICPCG:  Solving for p, Initial residual = 1.57355e-05, Final residual = 8.40002e-07, No Iterations 20
diagonal:  Solving for rho, Initial residual = 0, Final residual = 0, No Iterations 0
time step continuity errors : sum local = 2.35615e-08, global = -1.31618e-09, cumulative = 3.78096e-07
rho max/min : 10 10
ExecutionTime = 0.33 s  ClockTime = 0 s

surfaceFieldValue volFlow_inlet write:
    sum(inlet) of phi = -1.30853e-05

surfaceFieldValue volFlow_outlet write:
    sum(outlet) of phi = 1.30853e-05

surfaceFieldValue volFlow_wall write:
    sum(wall) of phi = -4.59642e-24

Time = 0.0015

Courant Number mean: 0.000537038 max: 0.00327226

 Coupling...
Starting up LIGGGHTS
Executing command: 'run 50    '
run 50    
Setting up run at Tue Oct  9 09:31:46 2018

Memory usage per processor = 11.7595 Mbytes
    Step    Atoms         KinEng            rke         Volume       centerOf       explDrag       explDrag       explDrag        cfd2[1]        cfd2[2]        cfd2[3] 
   10100    10000  6.6596708e-08  5.5080125e-08      5.076e-05    0.007579558 -6.9136538e-05  6.4972742e-05    0.011714312 -0.00011039577   0.0001169973    0.019412972 
0.1011 -6.91365379101954e-05 6.49727419570443e-05 0.0117143124151648 -0.000104603129850562 0.000118169561656901 0.0190897172527367
   10110    10000  6.6045284e-08  5.4795848e-08      5.076e-05   0.0075795602 -6.9136538e-05  6.4972742e-05    0.011714312 -0.00010460313  0.00011816956    0.019089717 
0.1012 -6.91365379101954e-05 6.49727419570443e-05 0.0117143124151648 -9.74806943221769e-05 0.000119073224358381 0.0187792193208268
   10120    10000  6.3657955e-08  5.1913751e-08      5.076e-05   0.0075795795 -6.9136538e-05  6.4972742e-05    0.011714312 -9.7480694e-05  0.00011907322    0.018779219 
0.1013 -6.91365379101954e-05 6.49727419570443e-05 0.0117143124151648 -9.00953487256275e-05 0.000119151155457623 0.0185010511888418
   10130    10000  6.1059766e-08  4.9556885e-08      5.076e-05   0.0075796145 -6.9136538e-05  6.4972742e-05    0.011714312 -9.0095349e-05  0.00011915116    0.018501051 
0.1014 -6.91365379101954e-05 6.49727419570443e-05 0.0117143124151648 -8.26384040184197e-05 0.000120272801418967 0.018256507488264
   10140    10000  6.0272605e-08  4.9012372e-08      5.076e-05   0.0075796633 -6.9136538e-05  6.4972742e-05    0.011714312 -8.2638404e-05   0.0001202728    0.018256507 
0.1015 -6.91365379101954e-05 6.49727419570443e-05 0.0117143124151648 -7.60903131007955e-05 0.000122243517395626 0.0180442566329
   10150    10000  5.9926417e-08  4.8983189e-08      5.076e-05   0.0075797243 -6.9136538e-05  6.4972742e-05    0.011714312 -7.6090313e-05  0.00012224352    0.018044257 
Loop time of 0.0602352 on 4 procs for 50 steps with 10000 atoms, finish time Tue Oct  9 09:31:46 2018


Pair  time (%) = 0.0433676 (71.9971)
Neigh time (%) = 0 (0)
Comm  time (%) = 0.00286757 (4.76062)
Outpt time (%) = 0.000641167 (1.06444)
Other time (%) = 0.0133589 (22.1779)

Nlocal:    2500 ave 2510 max 2494 min
Histogram: 1 1 0 1 0 0 0 0 0 1
Nghost:    736.75 ave 741 max 727 min
Histogram: 1 0 0 0 0 0 0 0 1 2
Neighs:    17459.2 ave 17527 max 17424 min
Histogram: 2 0 0 1 0 0 0 0 0 1

Total # of neighbors = 69837
Ave neighs/atom = 6.9837
Neighbor list builds = 0
Dangerous builds = 0
LIGGGHTS finished

 timeStepFraction() = 1

Solver level total Eulerian momentum exchange:
  TotalForceImp:  (-1.82455e-05 -4.3252e-05 -0.00647572)
  Warning, these values are based on latest Ksl and Us but prev. iteration U!

diagonal:  Solving for rho, Initial residual = 0, Final residual = 0, No Iterations 0
PIMPLE: iteration 1
DILUPBiCGStab:  Solving for Ux, Initial residual = 0.172713, Final residual = 5.9233e-06, No Iterations 1
DILUPBiCGStab:  Solving for Uy, Initial residual = 0.171244, Final residual = 5.35766e-06, No Iterations 1
DILUPBiCGStab:  Solving for Uz, Initial residual = 0.178662, Final residual = 7.90901e-06, No Iterations 1
DILUPBiCGStab:  Solving for h, Initial residual = 0.0812808, Final residual = 3.51671e-07, No Iterations 2
DICPCG:  Solving for p, Initial residual = 0.00833274, Final residual = 5.85651e-05, No Iterations 29
diagonal:  Solving for rho, Initial residual = 0, Final residual = 0, No Iterations 0
time step continuity errors : sum local = 1.64787e-06, global = -5.35181e-08, cumulative = 3.24578e-07
rho max/min : 10 10
DICPCG:  Solving for p, Initial residual = 0.000491292, Final residual = 4.68535e-06, No Iterations 26
diagonal:  Solving for rho, Initial residual = 0, Final residual = 0, No Iterations 0
time step continuity errors : sum local = 1.34662e-07, global = 1.10626e-08, cumulative = 3.35641e-07
rho max/min : 10 10
DICPCG:  Solving for p, Initial residual = 4.29144e-05, Final residual = 6.3688e-07, No Iterations 24
diagonal:  Solving for rho, Initial residual = 0, Final residual = 0, No Iterations 0
time step continuity errors : sum local = 1.81811e-08, global = -1.28471e-09, cumulative = 3.34356e-07
rho max/min : 10 10
DICPCG:  Solving for p, Initial residual = 6.1561e-06, Final residual = 9.48681e-07, No Iterations 4
diagonal:  Solving for rho, Initial residual = 0, Final residual = 0, No Iterations 0
time step continuity errors : sum local = 2.70816e-08, global = 1.97593e-09, cumulative = 3.36332e-07
rho max/min : 10 10
ExecutionTime = 0.44 s  ClockTime = 0 s

surfaceFieldValue volFlow_inlet write:
    sum(inlet) of phi = -1.52214e-05

surfaceFieldValue volFlow_outlet write:
    sum(outlet) of phi = 1.52215e-05

surfaceFieldValue volFlow_wall write:
    sum(wall) of phi = 1.60995e-22

Time = 0.002

Courant Number mean: 0.000621925 max: 0.00335706

 Coupling...
Starting up LIGGGHTS
Executing command: 'run 50    '
run 50    
Setting up run at Tue Oct  9 09:31:46 2018

Memory usage per processor = 11.7595 Mbytes
    Step    Atoms         KinEng            rke         Volume       centerOf       explDrag       explDrag       explDrag        cfd2[1]        cfd2[2]        cfd2[3] 
   10150    10000  5.9926417e-08  4.8983189e-08      5.076e-05   0.0075797243 -4.3112967e-05  5.7380106e-05    0.010790199 -5.0571106e-05  8.8547573e-05    0.017282884 
0.1016 -4.3112967458904e-05 5.73801064511198e-05 0.0107901990963566 -4.72250070266898e-05 9.16754348630972e-05 0.0171236798794813
   10160    10000  5.8968084e-08  4.8793328e-08      5.076e-05   0.0075797955 -4.3112967e-05  5.7380106e-05    0.010790199 -4.7225007e-05  9.1675435e-05     0.01712368 
0.1017 -4.3112967458904e-05 5.73801064511198e-05 0.0107901990963566 -4.37863637315474e-05 9.56435420784526e-05 0.0169865621590545
   10170    10000  5.7726236e-08  4.8321911e-08      5.076e-05    0.007579875 -4.3112967e-05  5.7380106e-05    0.010790199 -4.3786364e-05  9.5643542e-05    0.016986562 
0.1018 -4.3112967458904e-05 5.73801064511198e-05 0.0107901990963566 -4.02929074603345e-05 9.95297985879163e-05 0.0168759888148749
   10180    10000  5.7696187e-08  4.7957294e-08      5.076e-05   0.0075799615 -4.3112967e-05  5.7380106e-05    0.010790199 -4.0292907e-05  9.9529799e-05    0.016875989 
0.1019 -4.3112967458904e-05 5.73801064511198e-05 0.0107901990963566 -3.73144299545798e-05 0.000104134166718556 0.0167891061736155
   10190    10000  5.7830197e-08  4.7663182e-08      5.076e-05   0.0075800537 -4.3112967e-05  5.7380106e-05    0.010790199  -3.731443e-05  0.00010413417    0.016789106 
CFD Coupling established at step 10200
0.102 -4.3112967458904e-05 5.73801064511198e-05 0.0107901990963566 -3.45753407546882e-05 0.000108727930974976 0.016723094533492
   10200    10000  5.7681843e-08  4.6627072e-08      5.076e-05   0.0075801506 -4.3112967e-05  5.7380106e-05    0.010790199 -3.4575341e-05  0.00010872793    0.016723095 
Loop time of 0.0624673 on 4 procs for 50 steps with 10000 atoms, finish time Tue Oct  9 09:31:46 2018


Pair  time (%) = 0.0440019 (70.4399)
Neigh time (%) = 0 (0)
Comm  time (%) = 0.00288606 (4.62012)
Outpt time (%) = 0.000631238 (1.01051)
Other time (%) = 0.0149481 (23.9294)

Nlocal:    2500 ave 2510 max 2494 min
Histogram: 1 1 0 1 0 0 0 0 0 1
Nghost:    736.75 ave 741 max 727 min
Histogram: 1 0 0 0 0 0 0 0 1 2
Neighs:    17460.8 ave 17528 max 17425 min
Histogram: 2 0 0 1 0 0 0 0 0 1

Total # of neighbors = 69843
Ave neighs/atom = 6.9843
Neighbor list builds = 0
Dangerous builds = 0
LIGGGHTS finished

 timeStepFraction() = 1

Solver level total Eulerian momentum exchange:
  TotalForceImp:  (-1.9619e-05 -5.77885e-05 -0.00709941)
  Warning, these values are based on latest Ksl and Us but prev. iteration U!

diagonal:  Solving for rho, Initial residual = 0, Final residual = 0, No Iterations 0
PIMPLE: iteration 1
DILUPBiCGStab:  Solving for Ux, Initial residual = 0.174047, Final residual = 3.82651e-06, No Iterations 1
DILUPBiCGStab:  Solving for Uy, Initial residual = 0.170705, Final residual = 3.45987e-06, No Iterations 1
DILUPBiCGStab:  Solving for Uz, Initial residual = 0.112437, Final residual = 4.01478e-07, No Iterations 2
DILUPBiCGStab:  Solving for h, Initial residual = 0.0111436, Final residual = 2.99624e-06, No Iterations 1
DICPCG:  Solving for p, Initial residual = 0.00742528, Final residual = 6.14497e-05, No Iterations 28
diagonal:  Solving for rho, Initial residual = 0, Final residual = 0, No Iterations 0
time step continuity errors : sum local = 1.75673e-06, global = 2.34143e-07, cumulative = 5.70475e-07
rho max/min : 10 10
DICPCG:  Solving for p, Initial residual = 0.000667829, Final residual = 5.52444e-06, No Iterations 30
diagonal:  Solving for rho, Initial residual = 0, Final residual = 0, No Iterations 0
time step continuity errors : sum local = 1.34528e-07, global = 9.24184e-09, cumulative = 5.79717e-07
rho max/min : 10 10
DICPCG:  Solving for p, Initial residual = 5.06964e-05, Final residual = 8.76518e-07, No Iterations 24
diagonal:  Solving for rho, Initial residual = 0, Final residual = 0, No Iterations 0
time step continuity errors : sum local = 2.16309e-08, global = -1.16567e-09, cumulative = 5.78551e-07
rho max/min : 10 10
DICPCG:  Solving for p, Initial residual = 7.60523e-06, Final residual = 9.01521e-07, No Iterations 4
diagonal:  Solving for rho, Initial residual = 0, Final residual = 0, No Iterations 0
time step continuity errors : sum local = 2.22492e-08, global = -7.04663e-09, cumulative = 5.71505e-07
rho max/min : 10 10
ExecutionTime = 0.54 s  ClockTime = 0 s

surfaceFieldValue volFlow_inlet write:
    sum(inlet) of phi = -1.53526e-05

surfaceFieldValue volFlow_outlet write:
    sum(outlet) of phi = 1.53522e-05

surfaceFieldValue volFlow_wall write:
    sum(wall) of phi = -7.76006e-24

Time = 0.0025

Courant Number mean: 0.000631038 max: 0.00365785

 Coupling...
Starting up LIGGGHTS
Executing command: 'run 50    '
run 50    
Setting up run at Tue Oct  9 09:31:46 2018

Memory usage per processor = 11.7595 Mbytes
    Step    Atoms         KinEng            rke         Volume       centerOf       explDrag       explDrag       explDrag        cfd2[1]        cfd2[2]        cfd2[3] 
   10200    10000  5.7681843e-08  4.6627072e-08      5.076e-05   0.0075801506 -3.8087528e-06  3.9617483e-05    0.010586306 -6.2683978e-06  7.2700321e-05    0.017724081 
0.1021 -3.8087528196266e-06 3.96174828679857e-05 0.0105863058590368 -5.0130489214926e-06 7.73153164622292e-05 0.0176639992856659
   10210    10000  5.7185663e-08  4.5584869e-08      5.076e-05   0.0075802517 -3.8087528e-06  3.9617483e-05    0.010586306 -5.0130489e-06  7.7315316e-05    0.017663999 
0.1022 -3.8087528196266e-06 3.96174828679857e-05 0.0105863058590368 -3.08920207847011e-06 8.17148054053782e-05 0.0176174854759277
   10220    10000  5.7312961e-08  4.5272846e-08      5.076e-05   0.0075803565 -3.8087528e-06  3.9617483e-05    0.010586306 -3.0892021e-06  8.1714805e-05    0.017617485 
0.1023 -3.8087528196266e-06 3.96174828679857e-05 0.0105863058590368 -1.5554768409182e-06 8.56547609431659e-05 0.0175858607847928
   10230    10000  5.7342482e-08  4.4809328e-08      5.076e-05   0.0075804642 -3.8087528e-06  3.9617483e-05    0.010586306 -1.5554768e-06  8.5654761e-05    0.017585861 
0.1024 -3.8087528196266e-06 3.96174828679857e-05 0.0105863058590368 -7.32573680822349e-07 8.88218744812311e-05 0.0175667594218277
   10240    10000  5.7502831e-08  4.4429055e-08      5.076e-05   0.0075805741 -3.8087528e-06  3.9617483e-05    0.010586306 -7.3257368e-07  8.8821874e-05    0.017566759 
0.1025 -3.8087528196266e-06 3.96174828679857e-05 0.0105863058590368 -5.77493775564319e-07 9.09950598758393e-05 0.0175584046990747
   10250    10000  5.7809243e-08  4.4165985e-08      5.076e-05   0.0075806854 -3.8087528e-06  3.9617483e-05    0.010586306 -5.7749378e-07   9.099506e-05    0.017558405 
Loop time of 0.059026 on 4 procs for 50 steps with 10000 atoms, finish time Tue Oct  9 09:31:46 2018


Pair  time (%) = 0.0430388 (72.915)
Neigh time (%) = 0 (0)
Comm  time (%) = 0.0028001 (4.74384)
Outpt time (%) = 0.000630041 (1.06739)
Other time (%) = 0.012557 (21.2737)

Nlocal:    2500 ave 2510 max 2494 min
Histogram: 1 1 0 1 0 0 0 0 0 1
Nghost:    737 ave 741 max 727 min
Histogram: 1 0 0 0 0 0 0 0 0 3
Neighs:    17462.2 ave 17530 max 17426 min
Histogram: 1 1 1 0 0 0 0 0 0 1

Total # of neighbors = 69849
Ave neighs/atom = 6.9849
Neighbor list builds = 0
Dangerous builds = 0
LIGGGHTS finished

 timeStepFraction() = 1

Solver level total Eulerian momentum exchange:
  TotalForceImp:  (-1.79453e-05 -4.93102e-05 -0.00683505)
  Warning, these values are based on latest Ksl and Us but prev. iteration U!

diagonal:  Solving for rho, Initial residual = 0, Final residual = 0, No Iterations 0
PIMPLE: iteration 1
DILUPBiCGStab:  Solving for Ux, Initial residual = 0.161231, Final residual = 3.21075e-06, No Iterations 1
DILUPBiCGStab:  Solving for Uy, Initial residual = 0.161651, Final residual = 3.71871e-06, No Iterations 1
DILUPBiCGStab:  Solving for Uz, Initial residual = 0.0807907, Final residual = 2.27673e-06, No Iterations 1
DILUPBiCGStab:  Solving for h, Initial residual = 0.0492782, Final residual = 2.58651e-07, No Iterations 2
DICPCG:  Solving for p, Initial residual = 0.00967794, Final residual = 7.47356e-05, No Iterations 17
diagonal:  Solving for rho, Initial residual = 0, Final residual = 0, No Iterations 0
time step continuity errors : sum local = 1.84881e-06, global = -7.50539e-07, cumulative = -1.79034e-07
rho max/min : 10 10
DICPCG:  Solving for p, Initial residual = 0.000590017, Final residual = 5.64072e-06, No Iterations 29
diagonal:  Solving for rho, Initial residual = 0, Final residual = 0, No Iterations 0
time step continuity errors : sum local = 1.34933e-07, global = -1.22892e-08, cumulative = -1.91323e-07
rho max/min : 10 10
DICPCG:  Solving for p, Initial residual = 5.17683e-05, Final residual = 9.06644e-07, No Iterations 25
diagonal:  Solving for rho, Initial residual = 0, Final residual = 0, No Iterations 0
time step continuity errors : sum local = 2.17138e-08, global = 2.06566e-09, cumulative = -1.89258e-07
rho max/min : 10 10
DICPCG:  Solving for p, Initial residual = 7.02306e-06, Final residual = 9.55156e-07, No Iterations 5
diagonal:  Solving for rho, Initial residual = 0, Final residual = 0, No Iterations 0
time step continuity errors : sum local = 2.28728e-08, global = 3.40486e-09, cumulative = -1.85853e-07
rho max/min : 10 10
ExecutionTime = 0.64 s  ClockTime = 0 s

surfaceFieldValue volFlow_inlet write:
    sum(inlet) of phi = -1.55826e-05

surfaceFieldValue volFlow_outlet write:
    sum(outlet) of phi = 1.55828e-05

surfaceFieldValue volFlow_wall write:
    sum(wall) of phi = 4.05187e-23

Time = 0.003

Courant Number mean: 0.000642789 max: 0.00398817

 Coupling...
Starting up LIGGGHTS
Executing command: 'run 50    '
run 50    
Setting up run at Tue Oct  9 09:31:46 2018

Memory usage per processor = 11.7595 Mbytes
    Step    Atoms         KinEng            rke         Volume       centerOf       explDrag       explDrag       explDrag        cfd2[1]        cfd2[2]        cfd2[3] 
   10250    10000  5.7809243e-08  4.4165985e-08      5.076e-05   0.0075806854  1.7751843e-05   3.199474e-05   0.0097166341  1.8562803e-05  6.1665029e-05    0.016643666 
0.1026 1.77518427372014e-05 3.19947399259144e-05 0.00971663414765661 1.83665369450357e-05 6.38274769220889e-05 0.0166611972829421
   10260    10000     5.7895e-08  4.4018018e-08      5.076e-05    0.007580797  1.7751843e-05   3.199474e-05   0.0097166341  1.8366537e-05  6.3827477e-05    0.016661197 
0.1027 1.77518427372014e-05 3.19947399259144e-05 0.00971663414765661 1.82485710791512e-05 6.59579888845656e-05 0.0166873149745596
   10270    10000  5.7789272e-08  4.3927994e-08      5.076e-05    0.007580908  1.7751843e-05   3.199474e-05   0.0097166341  1.8248571e-05  6.5957989e-05    0.016687315 
0.1028 1.77518427372014e-05 3.19947399259144e-05 0.00971663414765661 1.76487168026423e-05 6.79253903997688e-05 0.0167213979762421
   10280    10000  5.7288944e-08  4.3620696e-08      5.076e-05   0.0075810179  1.7751843e-05   3.199474e-05   0.0097166341  1.7648717e-05   6.792539e-05    0.016721398 
0.1029 1.77518427372014e-05 3.19947399259144e-05 0.00971663414765661 1.71721410982384e-05 6.94604424117533e-05 0.01676028341017
   10290    10000  5.7221972e-08  4.3482696e-08      5.076e-05   0.0075811263  1.7751843e-05   3.199474e-05   0.0097166341  1.7172141e-05  6.9460442e-05    0.016760283 
CFD Coupling established at step 10300
0.103 1.77518427372014e-05 3.19947399259144e-05 0.00971663414765661 1.71139582556589e-05 7.0059077522106e-05 0.0168026957168054
   10300    10000  5.7138792e-08  4.3372299e-08      5.076e-05   0.0075812328  1.7751843e-05   3.199474e-05   0.0097166341  1.7113958e-05  7.0059078e-05    0.016802696 
Loop time of 0.0547249 on 4 procs for 50 steps with 10000 atoms, finish time Tue Oct  9 09:31:46 2018


Pair  time (%) = 0.0420333 (76.8084)
Neigh time (%) = 0 (0)
Comm  time (%) = 0.00272754 (4.98409)
Outpt time (%) = 0.000517313 (0.945297)
Other time (%) = 0.00944671 (17.2622)

Nlocal:    2500 ave 2510 max 2494 min
Histogram: 1 1 0 1 0 0 0 0 0 1
Nghost:    737 ave 741 max 727 min
Histogram: 1 0 0 0 0 0 0 0 0 3
Neighs:    17461.2 ave 17528 max 17424 min
Histogram: 1 1 1 0 0 0 0 0 0 1

Total # of neighbors = 69845
Ave neighs/atom = 6.9845
Neighbor list builds = 0
Dangerous builds = 0
LIGGGHTS finished

 timeStepFraction() = 1

Solver level total Eulerian momentum exchange:
  TotalForceImp:  (-3.95974e-05 -3.91601e-05 -0.00713121)
  Warning, these values are based on latest Ksl and Us but prev. iteration U!

diagonal:  Solving for rho, Initial residual = 0, Final residual = 0, No Iterations 0
PIMPLE: iteration 1
DILUPBiCGStab:  Solving for Ux, Initial residual = 0.16475, Final residual = 4.09481e-06, No Iterations 1
DILUPBiCGStab:  Solving for Uy, Initial residual = 0.142053, Final residual = 3.95261e-06, No Iterations 1
DILUPBiCGStab:  Solving for Uz, Initial residual = 0.0653457, Final residual = 3.90083e-06, No Iterations 1
DILUPBiCGStab:  Solving for h, Initial residual = 0.0125253, Final residual = 3.70015e-06, No Iterations 1
DICPCG:  Solving for p, Initial residual = 0.00898484, Final residual = 8.56887e-05, No Iterations 18
diagonal:  Solving for rho, Initial residual = 0, Final residual = 0, No Iterations 0
time step continuity errors : sum local = 2.05358e-06, global = 6.25637e-07, cumulative = 4.39785e-07
rho max/min : 10 10
DICPCG:  Solving for p, Initial residual = 0.000445395, Final residual = 3.79598e-06, No Iterations 16
diagonal:  Solving for rho, Initial residual = 0, Final residual = 0, No Iterations 0
time step continuity errors : sum local = 9.27121e-08, global = -2.40764e-08, cumulative = 4.15708e-07
rho max/min : 10 10
DICPCG:  Solving for p, Initial residual = 4.23086e-05, Final residual = 9.76424e-07, No Iterations 25
diagonal:  Solving for rho, Initial residual = 0, Final residual = 0, No Iterations 0
time step continuity errors : sum local = 2.38397e-08, global = -1.52385e-10, cumulative = 4.15556e-07
rho max/min : 10 10
DICPCG:  Solving for p, Initial residual = 6.11711e-06, Final residual = 8.72558e-07, No Iterations 4
diagonal:  Solving for rho, Initial residual = 0, Final residual = 0, No Iterations 0
time step continuity errors : sum local = 2.13049e-08, global = 3.21631e-09, cumulative = 4.18772e-07
rho max/min : 10 10
ExecutionTime = 0.74 s  ClockTime = 0 s

surfaceFieldValue volFlow_inlet write:
    sum(inlet) of phi = -1.57412e-05

surfaceFieldValue volFlow_outlet write:
    sum(outlet) of phi = 1.57414e-05

surfaceFieldValue volFlow_wall write:
    sum(wall) of phi = -5.75556e-23

Time = 0.0035

Courant Number mean: 0.000654086 max: 0.00463132

 Coupling...
Starting up LIGGGHTS
Executing command: 'run 50    '
run 50    
Setting up run at Tue Oct  9 09:31:46 2018

Memory usage per processor = 11.7595 Mbytes
    Step    Atoms         KinEng            rke         Volume       centerOf       explDrag       explDrag       explDrag        cfd2[1]        cfd2[2]        cfd2[3] 
   10300    10000  5.7138792e-08  4.3372299e-08      5.076e-05   0.0075812328  4.8619719e-05  3.4873975e-05   0.0096692978  6.4244286e-05  5.2553905e-05    0.016853829 
0.1031 4.86197187565277e-05 3.48739750416753e-05 0.00966929784132042 6.35831465099508e-05 5.31088398039682e-05 0.0168961311255256
   10310    10000  5.6570252e-08  4.2842344e-08      5.076e-05   0.0075813371  4.8619719e-05  3.4873975e-05   0.0096692978  6.3583147e-05   5.310884e-05    0.016896131 
0.1032 4.86197187565277e-05 3.48739750416753e-05 0.00966929784132042 6.29236824085689e-05 5.33220414745082e-05 0.0169433984160119
   10320    10000   5.599399e-08  4.2467194e-08      5.076e-05   0.0075814389  4.8619719e-05  3.4873975e-05   0.0096692978  6.2923682e-05  5.3322041e-05    0.016943398 
0.1033 4.86197187565277e-05 3.48739750416753e-05 0.00966929784132042 6.23200366085118e-05 5.23874890123427e-05 0.0169950282095724
   10330    10000  5.4780604e-08  4.2043184e-08      5.076e-05   0.0075815379  4.8619719e-05  3.4873975e-05   0.0096692978  6.2320037e-05  5.2387489e-05    0.016995028 
0.1034 4.86197187565277e-05 3.48739750416753e-05 0.00966929784132042 6.16117084719205e-05 5.13947995000572e-05 0.017049705638198
   10340    10000   5.384791e-08  4.2271191e-08      5.076e-05   0.0075816338  4.8619719e-05  3.4873975e-05   0.0096692978  6.1611708e-05    5.13948e-05    0.017049706 
0.1035 4.86197187565277e-05 3.48739750416753e-05 0.00966929784132042 6.07688840869985e-05 4.99483276646829e-05 0.0171065835007723
   10350    10000  5.2353298e-08  4.1638003e-08      5.076e-05   0.0075817266  4.8619719e-05  3.4873975e-05   0.0096692978  6.0768884e-05  4.9948328e-05    0.017106584 
Loop time of 0.0641703 on 4 procs for 50 steps with 10000 atoms, finish time Tue Oct  9 09:31:47 2018


Pair  time (%) = 0.0444017 (69.1935)
Neigh time (%) = 0 (0)
Comm  time (%) = 0.00297682 (4.63894)
Outpt time (%) = 0.000543728 (0.84732)
Other time (%) = 0.0162481 (25.3203)

Nlocal:    2500 ave 2510 max 2494 min
Histogram: 1 1 0 1 0 0 0 0 0 1
Nghost:    737 ave 741 max 727 min
Histogram: 1 0 0 0 0 0 0 0 0 3
Neighs:    17460.5 ave 17530 max 17421 min
Histogram: 1 1 0 1 0 0 0 0 0 1

Total # of neighbors = 69842
Ave neighs/atom = 6.9842
Neighbor list builds = 0
Dangerous builds = 0
LIGGGHTS finished

 timeStepFraction() = 1

Solver level total Eulerian momentum exchange:
  TotalForceImp:  (-2.3437e-05 -3.01807e-05 -0.00746218)
  Warning, these values are based on latest Ksl and Us but prev. iteration U!

diagonal:  Solving for rho, Initial residual = 0, Final residual = 0, No Iterations 0
PIMPLE: iteration 1
DILUPBiCGStab:  Solving for Ux, Initial residual = 0.130587, Final residual = 4.38721e-06, No Iterations 1
DILUPBiCGStab:  Solving for Uy, Initial residual = 0.127666, Final residual = 2.87927e-06, No Iterations 1
DILUPBiCGStab:  Solving for Uz, Initial residual = 0.0522102, Final residual = 2.71015e-06, No Iterations 1
DILUPBiCGStab:  Solving for h, Initial residual = 0.00995733, Final residual = 3.53382e-06, No Iterations 1
DICPCG:  Solving for p, Initial residual = 0.00804198, Final residual = 6.13439e-05, No Iterations 29
diagonal:  Solving for rho, Initial residual = 0, Final residual = 0, No Iterations 0
time step continuity errors : sum local = 1.49463e-06, global = -1.88294e-08, cumulative = 3.99943e-07
rho max/min : 10 10
DICPCG:  Solving for p, Initial residual = 0.000510925, Final residual = 3.98597e-06, No Iterations 28
diagonal:  Solving for rho, Initial residual = 0, Final residual = 0, No Iterations 0
time step continuity errors : sum local = 1.05347e-07, global = 8.91045e-09, cumulative = 4.08853e-07
rho max/min : 10 10
DICPCG:  Solving for p, Initial residual = 5.53373e-05, Final residual = 7.73039e-07, No Iterations 11
diagonal:  Solving for rho, Initial residual = 0, Final residual = 0, No Iterations 0
time step continuity errors : sum local = 2.03752e-08, global = 8.0237e-09, cumulative = 4.16877e-07
rho max/min : 10 10
DICPCG:  Solving for p, Initial residual = 8.97329e-06, Final residual = 8.21594e-07, No Iterations 5
diagonal:  Solving for rho, Initial residual = 0, Final residual = 0, No Iterations 0
time step continuity errors : sum local = 2.16547e-08, global = 7.24582e-09, cumulative = 4.24123e-07
rho max/min : 10 10
ExecutionTime = 0.85 s  ClockTime = 1 s

surfaceFieldValue volFlow_inlet write:
    sum(inlet) of phi = -1.61389e-05

surfaceFieldValue volFlow_outlet write:
    sum(outlet) of phi = 1.61394e-05

surfaceFieldValue volFlow_wall write:
    sum(wall) of phi = -3.81548e-23

Time = 0.004

Courant Number mean: 0.000666701 max: 0.00414951

 Coupling...
Starting up LIGGGHTS
Executing command: 'run 50    '
run 50    
Setting up run at Tue Oct  9 09:31:47 2018

Memory usage per processor = 11.7595 Mbytes
    Step    Atoms         KinEng            rke         Volume       centerOf       explDrag       explDrag       explDrag        cfd2[1]        cfd2[2]        cfd2[3] 
   10350    10000  5.2353298e-08  4.1638003e-08      5.076e-05   0.0075817266  3.2429619e-05  5.3704248e-05   0.0099883263  3.3137687e-05  7.2916155e-05    0.017479404 
0.1036 3.24296194977866e-05 5.37042478130831e-05 0.00998832630794044 3.26207886676608e-05 7.05642844619556e-05 0.0175300655867048
   10360    10000  5.1330676e-08  4.0798216e-08      5.076e-05   0.0075818161  3.2429619e-05  5.3704248e-05   0.0099883263  3.2620789e-05  7.0564284e-05    0.017530066 
0.1037 3.24296194977866e-05 5.37042478130831e-05 0.00998832630794044 3.15182567152673e-05 6.79527684694775e-05 0.0175862915879301
   10370    10000  5.0853989e-08  4.0430502e-08      5.076e-05   0.0075819022  3.2429619e-05  5.3704248e-05   0.0099883263  3.1518257e-05  6.7952768e-05    0.017586292 
0.1038 3.24296194977866e-05 5.37042478130831e-05 0.00998832630794044 3.01587849893752e-05 6.51436913052591e-05 0.0176454832529152
   10380    10000  5.0362376e-08  4.0149979e-08      5.076e-05   0.0075819847  3.2429619e-05  5.3704248e-05   0.0099883263  3.0158785e-05  6.5143691e-05    0.017645483 
0.1039 3.24296194977866e-05 5.37042478130831e-05 0.00998832630794044 2.85753520807879e-05 6.16786896593179e-05 0.0177081526077807
   10390    10000  4.9690953e-08  3.9925283e-08      5.076e-05   0.0075820635  3.2429619e-05  5.3704248e-05   0.0099883263  2.8575352e-05   6.167869e-05    0.017708153 
CFD Coupling established at step 10400
0.104 3.24296194977866e-05 5.37042478130831e-05 0.00998832630794044 2.69694081502123e-05 5.83513285541049e-05 0.0177750412313014
   10400    10000  4.9168621e-08  3.9646129e-08      5.076e-05   0.0075821382  3.2429619e-05  5.3704248e-05   0.0099883263  2.6969408e-05  5.8351329e-05    0.017775041 
Loop time of 0.0588437 on 4 procs for 50 steps with 10000 atoms, finish time Tue Oct  9 09:31:47 2018


Pair  time (%) = 0.0430862 (73.2215)
Neigh time (%) = 0 (0)
Comm  time (%) = 0.0028192 (4.791)
Outpt time (%) = 0.000546671 (0.929022)
Other time (%) = 0.0123916 (21.0585)

Nlocal:    2500 ave 2510 max 2494 min
Histogram: 1 1 0 1 0 0 0 0 0 1
Nghost:    737 ave 741 max 727 min
Histogram: 1 0 0 0 0 0 0 0 0 3
Neighs:    17461 ave 17533 max 17417 min
Histogram: 1 1 0 1 0 0 0 0 0 1

Total # of neighbors = 69844
Ave neighs/atom = 6.9844
Neighbor list builds = 0
Dangerous builds = 0
LIGGGHTS finished

 timeStepFraction() = 1

Solver level total Eulerian momentum exchange:
  TotalForceImp:  (-2.25874e-06 -1.59834e-05 -0.00801341)
  Warning, these values are based on latest Ksl and Us but prev. iteration U!

diagonal:  Solving for rho, Initial residual = 0, Final residual = 0, No Iterations 0
PIMPLE: iteration 1
DILUPBiCGStab:  Solving for Ux, Initial residual = 0.120495, Final residual = 3.11208e-06, No Iterations 1
DILUPBiCGStab:  Solving for Uy, Initial residual = 0.119994, Final residual = 3.46999e-06, No Iterations 1
DILUPBiCGStab:  Solving for Uz, Initial residual = 0.0541687, Final residual = 3.37409e-06, No Iterations 1
DILUPBiCGStab:  Solving for h, Initial residual = 0.0279871, Final residual = 7.20529e-06, No Iterations 1
DICPCG:  Solving for p, Initial residual = 0.00606627, Final residual = 3.57939e-05, No Iterations 30
diagonal:  Solving for rho, Initial residual = 0, Final residual = 0, No Iterations 0
time step continuity errors : sum local = 9.43126e-07, global = -3.43374e-08, cumulative = 3.89785e-07
rho max/min : 10 10
DICPCG:  Solving for p, Initial residual = 0.00032885, Final residual = 2.86813e-06, No Iterations 30
diagonal:  Solving for rho, Initial residual = 0, Final residual = 0, No Iterations 0
time step continuity errors : sum local = 8.34272e-08, global = 6.31766e-09, cumulative = 3.96103e-07
rho max/min : 10 10
DICPCG:  Solving for p, Initial residual = 2.86119e-05, Final residual = 8.09801e-07, No Iterations 10
diagonal:  Solving for rho, Initial residual = 0, Final residual = 0, No Iterations 0
time step continuity errors : sum local = 2.34998e-08, global = 4.5266e-09, cumulative = 4.0063e-07
rho max/min : 10 10
DICPCG:  Solving for p, Initial residual = 4.55587e-06, Final residual = 9.84357e-07, No Iterations 3
diagonal:  Solving for rho, Initial residual = 0, Final residual = 0, No Iterations 0
time step continuity errors : sum local = 2.85651e-08, global = 3.03515e-09, cumulative = 4.03665e-07
rho max/min : 10 10
ExecutionTime = 0.95 s  ClockTime = 1 s

surfaceFieldValue volFlow_inlet write:
    sum(inlet) of phi = -1.66773e-05

surfaceFieldValue volFlow_outlet write:
    sum(outlet) of phi = 1.66775e-05

surfaceFieldValue volFlow_wall write:
    sum(wall) of phi = 5.70425e-23

Time = 0.0045

Courant Number mean: 0.000685773 max: 0.00437891

 Coupling...
Starting up LIGGGHTS
Executing command: 'run 50    '
run 50    
Setting up run at Tue Oct  9 09:31:47 2018

Memory usage per processor = 11.7595 Mbytes
    Step    Atoms         KinEng            rke         Volume       centerOf       explDrag       explDrag       explDrag        cfd2[1]        cfd2[2]        cfd2[3] 
   10400    10000  4.9168621e-08  3.9646129e-08      5.076e-05   0.0075821382  2.4561917e-05  5.3449808e-05    0.010646649  2.0565472e-05  6.1213947e-05    0.018680452 
0.1041 2.45619166178755e-05 5.34498076593477e-05 0.0106466485474105 1.8962859226531e-05 5.81054988201168e-05 0.0187332550514211
   10410    10000  4.8696602e-08  3.9194643e-08      5.076e-05   0.0075822091  2.4561917e-05  5.3449808e-05    0.010646649  1.8962859e-05  5.8105499e-05    0.018733255 
0.1042 2.45619166178755e-05 5.34498076593477e-05 0.0106466485474105 1.68669764157297e-05 5.4845061396387e-05 0.0187933092223801
   10420    10000  4.8187733e-08  3.8937871e-08      5.076e-05   0.0075822764  2.4561917e-05  5.3449808e-05    0.010646649  1.6866976e-05  5.4845061e-05    0.018793309 
0.1043 2.45619166178755e-05 5.34498076593477e-05 0.0106466485474105 1.44122255303164e-05 5.1602383589791e-05 0.0188581186019721
   10430    10000  4.7695487e-08  3.8761788e-08      5.076e-05   0.0075823397  2.4561917e-05  5.3449808e-05    0.010646649  1.4412226e-05  5.1602384e-05    0.018858119 
0.1044 2.45619166178755e-05 5.34498076593477e-05 0.0106466485474105 1.17038231270809e-05 4.84360958136597e-05 0.0189271954388213
   10440    10000   4.744118e-08  3.8513632e-08      5.076e-05   0.0075823989  2.4561917e-05  5.3449808e-05    0.010646649  1.1703823e-05  4.8436096e-05    0.018927195 
0.1045 2.45619166178755e-05 5.34498076593477e-05 0.0106466485474105 8.79484020590773e-06 4.54323069586223e-05 0.0190007482876931
   10450    10000  4.6294584e-08  3.7469407e-08      5.076e-05   0.0075824537  2.4561917e-05  5.3449808e-05    0.010646649  8.7948402e-06  4.5432307e-05    0.019000748 
Loop time of 0.0590215 on 4 procs for 50 steps with 10000 atoms, finish time Tue Oct  9 09:31:47 2018


Pair  time (%) = 0.0430768 (72.985)
Neigh time (%) = 0 (0)
Comm  time (%) = 0.00281836 (4.77515)
Outpt time (%) = 0.000574232 (0.972922)
Other time (%) = 0.012552 (21.2669)

Nlocal:    2500 ave 2510 max 2494 min
Histogram: 1 1 0 1 0 0 0 0 0 1
Nghost:    737 ave 741 max 727 min
Histogram: 1 0 0 0 0 0 0 0 0 3
Neighs:    17460 ave 17530 max 17418 min
Histogram: 1 1 0 1 0 0 0 0 0 1

Total # of neighbors = 69840
Ave neighs/atom = 6.984
Neighbor list builds = 0
Dangerous builds = 0
LIGGGHTS finished

 timeStepFraction() = 1

Solver level total Eulerian momentum exchange:
  TotalForceImp:  (-1.70566e-06 -7.04002e-06 -0.00867751)
  Warning, these values are based on latest Ksl and Us but prev. iteration U!

diagonal:  Solving for rho, Initial residual = 0, Final residual = 0, No Iterations 0
PIMPLE: iteration 1
DILUPBiCGStab:  Solving for Ux, Initial residual = 0.10773, Final residual = 2.38879e-06, No Iterations 1
DILUPBiCGStab:  Solving for Uy, Initial residual = 0.102409, Final residual = 1.94625e-06, No Iterations 1
DILUPBiCGStab:  Solving for Uz, Initial residual = 0.055091, Final residual = 3.82997e-06, No Iterations 1
DILUPBiCGStab:  Solving for h, Initial residual = 0.0336373, Final residual = 9.7149e-06, No Iterations 1
DICPCG:  Solving for p, Initial residual = 0.00467031, Final residual = 3.20281e-05, No Iterations 30
diagonal:  Solving for rho, Initial residual = 0, Final residual = 0, No Iterations 0
time step continuity errors : sum local = 9.30008e-07, global = -5.27304e-08, cumulative = 3.50934e-07
rho max/min : 10 10
DICPCG:  Solving for p, Initial residual = 0.000245175, Final residual = 2.03881e-06, No Iterations 29
diagonal:  Solving for rho, Initial residual = 0, Final residual = 0, No Iterations 0
time step continuity errors : sum local = 6.46971e-08, global = 6.0986e-09, cumulative = 3.57033e-07
rho max/min : 10 10
DICPCG:  Solving for p, Initial residual = 2.00165e-05, Final residual = 9.59595e-07, No Iterations 8
diagonal:  Solving for rho, Initial residual = 0, Final residual = 0, No Iterations 0
time step continuity errors : sum local = 3.04069e-08, global = 3.86913e-09, cumulative = 3.60902e-07
rho max/min : 10 10
DICPCG:  Solving for p, Initial residual = 3.05194e-06, Final residual = 7.93623e-07, No Iterations 2
diagonal:  Solving for rho, Initial residual = 0, Final residual = 0, No Iterations 0
time step continuity errors : sum local = 2.51476e-08, global = 3.18513e-09, cumulative = 3.64087e-07
rho max/min : 10 10
ExecutionTime = 1.04 s  ClockTime = 1 s

surfaceFieldValue volFlow_inlet write:
    sum(inlet) of phi = -1.72139e-05

surfaceFieldValue volFlow_outlet write:
    sum(outlet) of phi = 1.72141e-05

surfaceFieldValue volFlow_wall write:
    sum(wall) of phi = -2.84548e-23

Time = 0.005

Courant Number mean: 0.000706189 max: 0.0044429

 Coupling...
Starting up LIGGGHTS
Executing command: 'run 50    '
run 50    
Setting up run at Tue Oct  9 09:31:47 2018

Memory usage per processor = 11.7595 Mbytes
    Step    Atoms         KinEng            rke         Volume       centerOf       explDrag       explDrag       explDrag        cfd2[1]        cfd2[2]        cfd2[3] 
   10450    10000  4.6294584e-08  3.7469407e-08      5.076e-05   0.0075824537  2.4471909e-05  3.8872422e-05    0.011490002   1.588749e-05  3.4653648e-05      0.0201809 
0.1046 2.44719085709088e-05 3.88724222851046e-05 0.0114900024775841 1.30380047072447e-05 3.16445504029941e-05 0.0202355945546011
   10460    10000  4.5833334e-08  3.6899328e-08      5.076e-05   0.0075825046  2.4471909e-05  3.8872422e-05    0.011490002  1.3038005e-05   3.164455e-05    0.020235595 
0.1047 2.44719085709088e-05 3.88724222851046e-05 0.0114900024775841 9.70981871372893e-06 2.76957783775856e-05 0.0202977806449709
   10470    10000  4.5513867e-08  3.6388328e-08      5.076e-05   0.0075825519  2.4471909e-05  3.8872422e-05    0.011490002  9.7098187e-06  2.7695778e-05    0.020297781 
0.1048 2.44719085709088e-05 3.88724222851046e-05 0.0114900024775841 6.42607943529603e-06 2.30912909875297e-05 0.0203639428626123
   10480    10000  4.4824364e-08  3.6071418e-08      5.076e-05   0.0075825953  2.4471909e-05  3.8872422e-05    0.011490002  6.4260794e-06  2.3091291e-05    0.020363943 
0.1049 2.44719085709088e-05 3.88724222851046e-05 0.0114900024775841 3.13939225841315e-06 1.8507702991748e-05 0.020433207405711
   10490    10000   4.429728e-08  3.5965767e-08      5.076e-05   0.0075826349  2.4471909e-05  3.8872422e-05    0.011490002  3.1393923e-06  1.8507703e-05    0.020433207 
CFD Coupling established at step 10500
0.105 2.44719085709088e-05 3.88724222851046e-05 0.0114900024775841 6.30297489967121e-09 1.41811579388705e-05 0.0205051818823931
   10500    10000  4.3851566e-08  3.5720761e-08      5.076e-05   0.0075826703  2.4471909e-05  3.8872422e-05    0.011490002  6.3029749e-09  1.4181158e-05    0.020505182 
Loop time of 0.0529282 on 4 procs for 50 steps with 10000 atoms, finish time Tue Oct  9 09:31:47 2018


Pair  time (%) = 0.0415931 (78.584)
Neigh time (%) = 0 (0)
Comm  time (%) = 0.00265534 (5.01687)
Outpt time (%) = 0.000553573 (1.04589)
Other time (%) = 0.00812622 (15.3533)

Nlocal:    2500 ave 2510 max 2494 min
Histogram: 1 1 0 1 0 0 0 0 0 1
Nghost:    737.25 ave 741 max 728 min
Histogram: 1 0 0 0 0 0 0 0 0 3
Neighs:    17458.8 ave 17527 max 17418 min
Histogram: 1 1 0 1 0 0 0 0 0 1

Total # of neighbors = 69835
Ave neighs/atom = 6.9835
Neighbor list builds = 0
Dangerous builds = 0
LIGGGHTS finished

 timeStepFraction() = 1

Solver level total Eulerian momentum exchange:
  TotalForceImp:  (9.31058e-06 6.1648e-06 -0.0093284)
  Warning, these values are based on latest Ksl and Us but prev. iteration U!

diagonal:  Solving for rho, Initial residual = 0, Final residual = 0, No Iterations 0
PIMPLE: iteration 1
DILUPBiCGStab:  Solving for Ux, Initial residual = 0.108851, Final residual = 2.10982e-06, No Iterations 1
DILUPBiCGStab:  Solving for Uy, Initial residual = 0.101294, Final residual = 1.76658e-06, No Iterations 1
DILUPBiCGStab:  Solving for Uz, Initial residual = 0.0519734, Final residual = 3.62998e-06, No Iterations 1
DILUPBiCGStab:  Solving for h, Initial residual = 0.0300769, Final residual = 8.57325e-06, No Iterations 1
DICPCG:  Solving for p, Initial residual = 0.00405101, Final residual = 2.49091e-05, No Iterations 30
diagonal:  Solving for rho, Initial residual = 0, Final residual = 0, No Iterations 0
time step continuity errors : sum local = 7.90673e-07, global = -4.24252e-08, cumulative = 3.21662e-07
rho max/min : 10 10
DICPCG:  Solving for p, Initial residual = 0.000224709, Final residual = 2.0654e-06, No Iterations 29
diagonal:  Solving for rho, Initial residual = 0, Final residual = 0, No Iterations 0
time step continuity errors : sum local = 7.02273e-08, global = 1.51835e-09, cumulative = 3.2318e-07
rho max/min : 10 10
DICPCG:  Solving for p, Initial residual = 2.03418e-05, Final residual = 9.28801e-07, No Iterations 6
diagonal:  Solving for rho, Initial residual = 0, Final residual = 0, No Iterations 0
time step continuity errors : sum local = 3.15578e-08, global = -2.44972e-10, cumulative = 3.22935e-07
rho max/min : 10 10
DICPCG:  Solving for p, Initial residual = 2.6977e-06, Final residual = 6.70548e-07, No Iterations 2
diagonal:  Solving for rho, Initial residual = 0, Final residual = 0, No Iterations 0
time step continuity errors : sum local = 2.27831e-08, global = -2.98915e-10, cumulative = 3.22637e-07
rho max/min : 10 10
ExecutionTime = 1.13 s  ClockTime = 1 s

surfaceFieldValue volFlow_inlet write:
    sum(inlet) of phi = -1.76772e-05

surfaceFieldValue volFlow_outlet write:
    sum(outlet) of phi = 1.76772e-05

surfaceFieldValue volFlow_wall write:
    sum(wall) of phi = -1.07662e-23

Time = 0.0055

Courant Number mean: 0.000724065 max: 0.00454523

 Coupling...
Starting up LIGGGHTS
Executing command: 'run 50    '
run 50    
Setting up run at Tue Oct  9 09:31:47 2018

Memory usage per processor = 11.7595 Mbytes
    Step    Atoms         KinEng            rke         Volume       centerOf       explDrag       explDrag       explDrag        cfd2[1]        cfd2[2]        cfd2[3] 
   10500    10000  4.3851566e-08  3.5720761e-08      5.076e-05   0.0075826703  1.4204555e-05   3.797952e-05    0.012357743 -7.5838728e-06  2.6434257e-05    0.021700282 
0.1051 1.42045547059812e-05 3.79795202963385e-05 0.0123577432812852 -1.04304262815475e-05 2.21049169570754e-05 0.0217523934725125
   10510    10000  4.2014129e-08  3.5189656e-08      5.076e-05   0.0075827022  1.4204555e-05   3.797952e-05    0.012357743 -1.0430426e-05  2.2104917e-05    0.021752393 
0.1052 1.42045547059812e-05 3.79795202963385e-05 0.0123577432812852 -1.32936295746677e-05 1.76201962794225e-05 0.0218124757324181
   10520    10000  4.0610264e-08  3.5019006e-08      5.076e-05   0.0075827307  1.4204555e-05   3.797952e-05    0.012357743  -1.329363e-05  1.7620196e-05    0.021812476 
0.1053 1.42045547059812e-05 3.79795202963385e-05 0.0123577432812852 -1.62979097227728e-05 1.35405135420422e-05 0.0218763169826053
   10530    10000  4.0158012e-08  3.4913378e-08      5.076e-05   0.0075827559  1.4204555e-05   3.797952e-05    0.012357743  -1.629791e-05  1.3540514e-05    0.021876317 
0.1054 1.42045547059812e-05 3.79795202963385e-05 0.0123577432812852 -1.9406894569712e-05 9.84138872305979e-06 0.0219416073180878
   10540    10000  3.9886925e-08  3.4724577e-08      5.076e-05   0.0075827776  1.4204555e-05   3.797952e-05    0.012357743 -1.9406895e-05  9.8413887e-06    0.021941607 
0.1055 1.42045547059812e-05 3.79795202963385e-05 0.0123577432812852 -2.20583881840303e-05 7.0156550213663e-06 0.0220085240963925
   10550    10000  3.9495437e-08  3.4406697e-08      5.076e-05   0.0075827958  1.4204555e-05   3.797952e-05    0.012357743 -2.2058388e-05   7.015655e-06    0.022008524 
Loop time of 0.0532535 on 4 procs for 50 steps with 10000 atoms, finish time Tue Oct  9 09:31:47 2018


Pair  time (%) = 0.0415728 (78.0658)
Neigh time (%) = 0 (0)
Comm  time (%) = 0.00266662 (5.0074)
Outpt time (%) = 0.000532087 (0.999158)
Other time (%) = 0.008482 (15.9276)

Nlocal:    2500 ave 2511 max 2494 min
Histogram: 1 1 1 0 0 0 0 0 0 1
Nghost:    737 ave 741 max 728 min
Histogram: 1 0 0 0 0 0 0 1 0 2
Neighs:    17459 ave 17533 max 17422 min
Histogram: 2 0 1 0 0 0 0 0 0 1

Total # of neighbors = 69836
Ave neighs/atom = 6.9836
Neighbor list builds = 0
Dangerous builds = 0
LIGGGHTS finished

 timeStepFraction() = 1

Solver level total Eulerian momentum exchange:
  TotalForceImp:  (2.7581e-05 -8.55719e-06 -0.00989269)
  Warning, these values are based on latest Ksl and Us but prev. iteration U!

diagonal:  Solving for rho, Initial residual = 0, Final residual = 0, No Iterations 0
PIMPLE: iteration 1
DILUPBiCGStab:  Solving for Ux, Initial residual = 0.131873, Final residual = 2.32592e-06, No Iterations 1
DILUPBiCGStab:  Solving for Uy, Initial residual = 0.113176, Final residual = 2.43691e-06, No Iterations 1
DILUPBiCGStab:  Solving for Uz, Initial residual = 0.0501786, Final residual = 3.35348e-06, No Iterations 1
DILUPBiCGStab:  Solving for h, Initial residual = 0.0237974, Final residual = 6.43354e-06, No Iterations 1
DICPCG:  Solving for p, Initial residual = 0.00345495, Final residual = 2.16571e-05, No Iterations 30
diagonal:  Solving for rho, Initial residual = 0, Final residual = 0, No Iterations 0
time step continuity errors : sum local = 7.36464e-07, global = -2.01231e-08, cumulative = 3.02513e-07
rho max/min : 10 10
DICPCG:  Solving for p, Initial residual = 0.000179531, Final residual = 1.23316e-06, No Iterations 31
diagonal:  Solving for rho, Initial residual = 0, Final residual = 0, No Iterations 0
time step continuity errors : sum local = 4.44378e-08, global = 2.26805e-09, cumulative = 3.04781e-07
rho max/min : 10 10
DICPCG:  Solving for p, Initial residual = 1.71962e-05, Final residual = 6.68957e-07, No Iterations 8
diagonal:  Solving for rho, Initial residual = 0, Final residual = 0, No Iterations 0
time step continuity errors : sum local = 2.40922e-08, global = 9.60907e-10, cumulative = 3.05742e-07
rho max/min : 10 10
DICPCG:  Solving for p, Initial residual = 2.81685e-06, Final residual = 6.49397e-07, No Iterations 2
diagonal:  Solving for rho, Initial residual = 0, Final residual = 0, No Iterations 0
time step continuity errors : sum local = 2.33877e-08, global = 3.50678e-10, cumulative = 3.06093e-07
rho max/min : 10 10
ExecutionTime = 1.23 s  ClockTime = 1 s

surfaceFieldValue volFlow_inlet write:
    sum(inlet) of phi = -1.80749e-05

surfaceFieldValue volFlow_outlet write:
    sum(outlet) of phi = 1.80749e-05

surfaceFieldValue volFlow_wall write:
    sum(wall) of phi = 3.82765e-23

Time = 0.006

Courant Number mean: 0.000738667 max: 0.00467523

 Coupling...
Starting up LIGGGHTS
Executing command: 'run 50    '
run 50    
Setting up run at Tue Oct  9 09:31:47 2018

Memory usage per processor = 11.7595 Mbytes
    Step    Atoms         KinEng            rke         Volume       centerOf       explDrag       explDrag       explDrag        cfd2[1]        cfd2[2]        cfd2[3] 
   10550    10000  3.9495437e-08  3.4406697e-08      5.076e-05   0.0075827958 -1.1918331e-05  4.6401145e-05    0.013141177 -5.0362892e-05  3.9533946e-05     0.02305472 
0.1056 -1.1918331181097e-05 4.64011447131489e-05 0.0131411768263255 -5.14092193317009e-05 3.74113143263699e-05 0.0231030421669245
   10560    10000    3.93083e-08  3.4126911e-08      5.076e-05   0.0075828107 -1.1918331e-05  4.6401145e-05    0.013141177 -5.1409219e-05  3.7411314e-05    0.023103042 
0.1057 -1.1918331181097e-05 4.64011447131489e-05 0.0131411768263255 -5.11912369704525e-05 3.60978332050471e-05 0.0231566119077882
   10570    10000  3.9261474e-08  3.3920048e-08      5.076e-05   0.0075828228 -1.1918331e-05  4.6401145e-05    0.013141177 -5.1191237e-05  3.6097833e-05    0.023156612 
0.1058 -1.1918331181097e-05 4.64011447131489e-05 0.0131411768263255 -5.00652822743345e-05 3.4795653548714e-05 0.0232121156735459
   10580    10000  3.8803205e-08  3.3630634e-08      5.076e-05    0.007582832 -1.1918331e-05  4.6401145e-05    0.013141177 -5.0065282e-05  3.4795654e-05    0.023212116 
0.1059 -1.1918331181097e-05 4.64011447131489e-05 0.0131411768263255 -4.78382695717068e-05 3.35184080155297e-05 0.0232698272359303
   10590    10000  3.7899432e-08   3.344957e-08      5.076e-05   0.0075828381 -1.1918331e-05  4.6401145e-05    0.013141177  -4.783827e-05  3.3518408e-05    0.023269827 
CFD Coupling established at step 10600
0.106 -1.1918331181097e-05 4.64011447131489e-05 0.0131411768263255 -4.51350314905549e-05 3.14400582832744e-05 0.0233279977728838
   10600    10000  3.7710104e-08  3.3362306e-08      5.076e-05   0.0075828411 -1.1918331e-05  4.6401145e-05    0.013141177 -4.5135031e-05  3.1440058e-05    0.023327998 
Loop time of 0.0544947 on 4 procs for 50 steps with 10000 atoms, finish time Tue Oct  9 09:31:47 2018


Pair  time (%) = 0.0419327 (76.9483)
Neigh time (%) = 0 (0)
Comm  time (%) = 0.0027041 (4.96213)
Outpt time (%) = 0.000498848 (0.915406)
Other time (%) = 0.009359 (17.1741)

Nlocal:    2500 ave 2511 max 2494 min
Histogram: 1 1 1 0 0 0 0 0 0 1
Nghost:    737 ave 741 max 728 min
Histogram: 1 0 0 0 0 0 0 1 0 2
Neighs:    17456.8 ave 17533 max 17420 min
Histogram: 2 0 1 0 0 0 0 0 0 1

Total # of neighbors = 69827
Ave neighs/atom = 6.9827
Neighbor list builds = 0
Dangerous builds = 0
LIGGGHTS finished

 timeStepFraction() = 1

Solver level total Eulerian momentum exchange:
  TotalForceImp:  (2.56091e-05 -2.42683e-05 -0.0103988)
  Warning, these values are based on latest Ksl and Us but prev. iteration U!

diagonal:  Solving for rho, Initial residual = 0, Final residual = 0, No Iterations 0
PIMPLE: iteration 1
DILUPBiCGStab:  Solving for Ux, Initial residual = 0.131905, Final residual = 2.29284e-06, No Iterations 1
DILUPBiCGStab:  Solving for Uy, Initial residual = 0.117239, Final residual = 2.99128e-06, No Iterations 1
DILUPBiCGStab:  Solving for Uz, Initial residual = 0.0453428, Final residual = 2.77535e-06, No Iterations 1
DILUPBiCGStab:  Solving for h, Initial residual = 0.0199328, Final residual = 5.41722e-06, No Iterations 1
DICPCG:  Solving for p, Initial residual = 0.0033581, Final residual = 3.1303e-05, No Iterations 29
diagonal:  Solving for rho, Initial residual = 0, Final residual = 0, No Iterations 0
time step continuity errors : sum local = 1.12819e-06, global = 2.94851e-08, cumulative = 3.35578e-07
rho max/min : 10 10
DICPCG:  Solving for p, Initial residual = 0.000198776, Final residual = 1.95751e-06, No Iterations 30
diagonal:  Solving for rho, Initial residual = 0, Final residual = 0, No Iterations 0
time step continuity errors : sum local = 7.39479e-08, global = 3.20428e-09, cumulative = 3.38782e-07
rho max/min : 10 10
DICPCG:  Solving for p, Initial residual = 2.06927e-05, Final residual = 9.98854e-07, No Iterations 8
diagonal:  Solving for rho, Initial residual = 0, Final residual = 0, No Iterations 0
time step continuity errors : sum local = 3.77131e-08, global = 2.72335e-09, cumulative = 3.41506e-07
rho max/min : 10 10
DICPCG:  Solving for p, Initial residual = 3.56779e-06, Final residual = 8.26358e-07, No Iterations 3
diagonal:  Solving for rho, Initial residual = 0, Final residual = 0, No Iterations 0
time step continuity errors : sum local = 3.12002e-08, global = 1.7531e-09, cumulative = 3.43259e-07
rho max/min : 10 10
ExecutionTime = 1.33 s  ClockTime = 1 s

surfaceFieldValue volFlow_inlet write:
    sum(inlet) of phi = -1.84416e-05

surfaceFieldValue volFlow_outlet write:
    sum(outlet) of phi = 1.84417e-05

surfaceFieldValue volFlow_wall write:
    sum(wall) of phi = -1.18845e-22

Time = 0.0065

Courant Number mean: 0.000751227 max: 0.00476044

 Coupling...
Starting up LIGGGHTS
Executing command: 'run 50    '
run 50    
Setting up run at Tue Oct  9 09:31:47 2018

Memory usage per processor = 11.7595 Mbytes
    Step    Atoms         KinEng            rke         Volume       centerOf       explDrag       explDrag       explDrag        cfd2[1]        cfd2[2]        cfd2[3] 
   10600    10000  3.7710104e-08  3.3362306e-08      5.076e-05   0.0075828411 -4.7905905e-05  5.1553944e-05      0.0138861 -9.2288251e-05  5.8017572e-05    0.024307933 
0.1061 -4.79059054299757e-05 5.15539437252612e-05 0.013886099775538 -8.97680062662904e-05 5.42458187172793e-05 0.0243459802320058
   10610    10000  3.7037803e-08  3.2951181e-08      5.076e-05   0.0075828416 -4.7905905e-05  5.1553944e-05      0.0138861 -8.9768006e-05  5.4245819e-05     0.02434598 
0.1062 -4.79059054299757e-05 5.15539437252612e-05 0.013886099775538 -8.84677397645817e-05 4.91217244260918e-05 0.0243872957231933
   10620    10000  3.5211153e-08  3.2794453e-08      5.076e-05   0.0075828398 -4.7905905e-05  5.1553944e-05      0.0138861  -8.846774e-05  4.9121724e-05    0.024387296 
0.1063 -4.79059054299757e-05 5.15539437252612e-05 0.013886099775538 -8.68620881572575e-05 4.40202765184459e-05 0.0244301061826419
   10630    10000  3.4535455e-08  3.2693518e-08      5.076e-05   0.0075828359 -4.7905905e-05  5.1553944e-05      0.0138861 -8.6862088e-05  4.4020277e-05    0.024430106 
0.1064 -4.79059054299757e-05 5.15539437252612e-05 0.013886099775538 -8.45747633023701e-05 3.98372805084855e-05 0.0244731684076786
   10640    10000  3.4358943e-08   3.261789e-08      5.076e-05   0.0075828299 -4.7905905e-05  5.1553944e-05      0.0138861 -8.4574763e-05  3.9837281e-05    0.024473168 
0.1065 -4.79059054299757e-05 5.15539437252612e-05 0.013886099775538 -8.18024112008433e-05 3.63440762060738e-05 0.0245152569537217
   10650    10000  3.3767615e-08  3.1580739e-08      5.076e-05   0.0075828216 -4.7905905e-05  5.1553944e-05      0.0138861 -8.1802411e-05  3.6344076e-05    0.024515257 
Loop time of 0.056392 on 4 procs for 50 steps with 10000 atoms, finish time Tue Oct  9 09:31:47 2018


Pair  time (%) = 0.0421431 (74.7325)
Neigh time (%) = 0 (0)
Comm  time (%) = 0.00283031 (5.01899)
Outpt time (%) = 0.000606093 (1.07479)
Other time (%) = 0.0108124 (19.1737)

Nlocal:    2500 ave 2511 max 2494 min
Histogram: 1 1 1 0 0 0 0 0 0 1
Nghost:    737 ave 741 max 728 min
Histogram: 1 0 0 0 0 0 0 1 0 2
Neighs:    17457.8 ave 17536 max 17424 min
Histogram: 2 0 1 0 0 0 0 0 0 1

Total # of neighbors = 69831
Ave neighs/atom = 6.9831
Neighbor list builds = 0
Dangerous builds = 0
LIGGGHTS finished

 timeStepFraction() = 1

Solver level total Eulerian momentum exchange:
  TotalForceImp:  (2.67646e-05 -1.20378e-05 -0.0108126)
  Warning, these values are based on latest Ksl and Us but prev. iteration U!

diagonal:  Solving for rho, Initial residual = 0, Final residual = 0, No Iterations 0
PIMPLE: iteration 1
DILUPBiCGStab:  Solving for Ux, Initial residual = 0.125124, Final residual = 2.02647e-06, No Iterations 1
DILUPBiCGStab:  Solving for Uy, Initial residual = 0.12297, Final residual = 2.73729e-06, No Iterations 1
DILUPBiCGStab:  Solving for Uz, Initial residual = 0.0379057, Final residual = 2.27172e-06, No Iterations 1
DILUPBiCGStab:  Solving for h, Initial residual = 0.0159921, Final residual = 4.26177e-06, No Iterations 1
DICPCG:  Solving for p, Initial residual = 0.00300564, Final residual = 2.79989e-05, No Iterations 28
diagonal:  Solving for rho, Initial residual = 0, Final residual = 0, No Iterations 0
time step continuity errors : sum local = 1.05784e-06, global = 5.97104e-08, cumulative = 4.02969e-07
rho max/min : 10 10
DICPCG:  Solving for p, Initial residual = 0.000200141, Final residual = 1.92422e-06, No Iterations 29
diagonal:  Solving for rho, Initial residual = 0, Final residual = 0, No Iterations 0
time step continuity errors : sum local = 7.57349e-08, global = 5.6738e-09, cumulative = 4.08643e-07
rho max/min : 10 10
DICPCG:  Solving for p, Initial residual = 2.13057e-05, Final residual = 7.96323e-07, No Iterations 8
diagonal:  Solving for rho, Initial residual = 0, Final residual = 0, No Iterations 0
time step continuity errors : sum local = 3.13211e-08, global = 7.58068e-09, cumulative = 4.16224e-07
rho max/min : 10 10
DICPCG:  Solving for p, Initial residual = 3.70351e-06, Final residual = 8.05541e-07, No Iterations 2
diagonal:  Solving for rho, Initial residual = 0, Final residual = 0, No Iterations 0
time step continuity errors : sum local = 3.16837e-08, global = 7.33681e-09, cumulative = 4.23561e-07
rho max/min : 10 10
ExecutionTime = 1.42 s  ClockTime = 1 s

surfaceFieldValue volFlow_inlet write:
    sum(inlet) of phi = -1.88308e-05

surfaceFieldValue volFlow_outlet write:
    sum(outlet) of phi = 1.88313e-05

surfaceFieldValue volFlow_wall write:
    sum(wall) of phi = -4.30996e-23

Time = 0.007

Courant Number mean: 0.00076669 max: 0.00492622

 Coupling...
Starting up LIGGGHTS
Executing command: 'run 50    '
run 50    
Setting up run at Tue Oct  9 09:31:47 2018

Memory usage per processor = 11.7595 Mbytes
    Step    Atoms         KinEng            rke         Volume       centerOf       explDrag       explDrag       explDrag        cfd2[1]        cfd2[2]        cfd2[3] 
   10650    10000  3.3767615e-08  3.1580739e-08      5.076e-05   0.0075828216 -5.9631625e-05  6.5681453e-05    0.014552944 -0.00010477468  6.8289788e-05    0.025387521 
0.1066 -5.96316253255764e-05 6.56814534050854e-05 0.0145529444945608 -0.000101397431052224 6.56107087521571e-05 0.0254115938405973
   10660    10000  3.3131565e-08  3.0542197e-08      5.076e-05   0.0075828117 -5.9631625e-05  6.5681453e-05    0.014552944 -0.00010139743  6.5610709e-05    0.025411594 
0.1067 -5.96316253255764e-05 6.56814534050854e-05 0.0145529444945608 -9.84227943330676e-05 6.32182801934739e-05 0.0254362662607674
   10670    10000   3.283736e-08  3.0412689e-08      5.076e-05   0.0075828006 -5.9631625e-05  6.5681453e-05    0.014552944 -9.8422794e-05   6.321828e-05    0.025436266 
0.1068 -5.96316253255764e-05 6.56814534050854e-05 0.0145529444945608 -9.6133736182807e-05 6.11223001067675e-05 0.0254608813992372
   10680    10000  3.2312198e-08  3.0097958e-08      5.076e-05   0.0075827881 -5.9631625e-05  6.5681453e-05    0.014552944 -9.6133736e-05    6.11223e-05    0.025460881 
0.1069 -5.96316253255764e-05 6.56814534050854e-05 0.0145529444945608 -9.42538630848057e-05 5.95119449898723e-05 0.0254850810693381
   10690    10000  3.2147069e-08  2.9816244e-08      5.076e-05   0.0075827744 -5.9631625e-05  6.5681453e-05    0.014552944 -9.4253863e-05  5.9511945e-05    0.025485081 
CFD Coupling established at step 10700
0.107 -5.96316253255764e-05 6.56814534050854e-05 0.0145529444945608 -9.31094308632857e-05 5.85970440129695e-05 0.0255085053203868
   10700    10000  3.2060061e-08  2.9438525e-08      5.076e-05   0.0075827594 -5.9631625e-05  6.5681453e-05    0.014552944 -9.3109431e-05  5.8597044e-05    0.025508505 
Loop time of 0.0551935 on 4 procs for 50 steps with 10000 atoms, finish time Tue Oct  9 09:31:47 2018


Pair  time (%) = 0.0418497 (75.8236)
Neigh time (%) = 0 (0)
Comm  time (%) = 0.00276155 (5.00339)
Outpt time (%) = 0.000535176 (0.969635)
Other time (%) = 0.0100471 (18.2034)

Nlocal:    2500 ave 2511 max 2494 min
Histogram: 1 1 1 0 0 0 0 0 0 1
Nghost:    737 ave 741 max 728 min
Histogram: 1 0 0 0 0 0 0 1 0 2
Neighs:    17455.5 ave 17533 max 17421 min
Histogram: 2 1 0 0 0 0 0 0 0 1

Total # of neighbors = 69822
Ave neighs/atom = 6.9822
Neighbor list builds = 0
Dangerous builds = 0
LIGGGHTS finished

 timeStepFraction() = 1

Solver level total Eulerian momentum exchange:
  TotalForceImp:  (1.89115e-05 -2.69309e-05 -0.0111524)
  Warning, these values are based on latest Ksl and Us but prev. iteration U!

diagonal:  Solving for rho, Initial residual = 0, Final residual = 0, No Iterations 0
PIMPLE: iteration 1
DILUPBiCGStab:  Solving for Ux, Initial residual = 0.110545, Final residual = 2.10672e-06, No Iterations 1
DILUPBiCGStab:  Solving for Uy, Initial residual = 0.114354, Final residual = 2.40562e-06, No Iterations 1
DILUPBiCGStab:  Solving for Uz, Initial residual = 0.0310936, Final residual = 2.37876e-06, No Iterations 1
DILUPBiCGStab:  Solving for h, Initial residual = 0.0136809, Final residual = 3.48466e-06, No Iterations 1
[...]
0.1981 0.000111922108642005 5.98007518247648e-05 0.0607193920362687 0.000157336146993816 0.000121115014674538 0.105761902727984
   19810    10000  5.7624129e-07   3.683045e-08      5.076e-05   0.0077820274  0.00011192211  5.9800752e-05    0.060719392  0.00015733615  0.00012111501      0.1057619 
0.1982 0.000111922108642005 5.98007518247648e-05 0.0607193920362687 0.000157011391445963 0.000119112352147833 0.10563245128819
   19820    10000  5.8382631e-07  3.7086596e-08      5.076e-05   0.0077829316  0.00011192211  5.9800752e-05    0.060719392  0.00015701139  0.00011911235     0.10563245 
0.1983 0.000111922108642005 5.98007518247648e-05 0.0607193920362687 0.000157194985734163 0.000116471400162699 0.105506862266621
   19830    10000  5.9141726e-07  3.7262771e-08      5.076e-05   0.0077838424  0.00011192211  5.9800752e-05    0.060719392  0.00015719499   0.0001164714     0.10550686 
0.1984 0.000111922108642005 5.98007518247648e-05 0.0607193920362687 0.000158077563091914 0.00011397598426433 0.105384996351034
   19840    10000  5.9906253e-07  3.7386189e-08      5.076e-05   0.0077847596  0.00011192211  5.9800752e-05    0.060719392  0.00015807756  0.00011397598       0.105385 
0.1985 0.000111922108642005 5.98007518247648e-05 0.0607193920362687 0.000159705747885416 0.000112333675106663 0.105266684733257
   19850    10000  6.0671472e-07  3.7503428e-08      5.076e-05   0.0077856832  0.00011192211  5.9800752e-05    0.060719392  0.00015970575  0.00011233368     0.10526668 
Loop time of 0.0473544 on 4 procs for 50 steps with 10000 atoms, finish time Tue Oct  9 09:32:06 2018


Pair  time (%) = 0.0366518 (77.3988)
Neigh time (%) = 0 (0)
Comm  time (%) = 0.0027047 (5.71162)
Outpt time (%) = 0.000516232 (1.09015)
Other time (%) = 0.00748171 (15.7994)

Nlocal:    2500 ave 2510 max 2493 min
Histogram: 1 0 1 1 0 0 0 0 0 1
Nghost:    738.25 ave 745 max 729 min
Histogram: 1 0 0 0 0 1 0 0 1 1
Neighs:    17298.2 ave 17380 max 17217 min
Histogram: 1 0 0 0 1 1 0 0 0 1

Total # of neighbors = 69193
Ave neighs/atom = 6.9193
Neighbor list builds = 0
Dangerous builds = 0
Executing command: 'write_restart ../DEM/post/restart/liggghts.restartCFDEM'
write_restart ../DEM/post/restart/liggghts.restartCFDEM
System init for write_restart ...
LIGGGHTS finished

 timeStepFraction() = 1

Solver level total Eulerian momentum exchange:
  TotalForceImp:  (-0.000240675 0.000161924 -0.041498)
  Warning, these values are based on latest Ksl and Us but prev. iteration U!

diagonal:  Solving for rho, Initial residual = 0, Final residual = 0, No Iterations 0
PIMPLE: iteration 1
DILUPBiCGStab:  Solving for Ux, Initial residual = 0.0702301, Final residual = 2.5712e-06, No Iterations 1
DILUPBiCGStab:  Solving for Uy, Initial residual = 0.0780843, Final residual = 2.63409e-06, No Iterations 1
DILUPBiCGStab:  Solving for Uz, Initial residual = 0.018671, Final residual = 1.21766e-06, No Iterations 1
DILUPBiCGStab:  Solving for h, Initial residual = 0.0202272, Final residual = 7.83538e-06, No Iterations 1
DICPCG:  Solving for p, Initial residual = 0.00877823, Final residual = 7.68729e-05, No Iterations 18
diagonal:  Solving for rho, Initial residual = 0, Final residual = 0, No Iterations 0
time step continuity errors : sum local = 1.22396e-05, global = 7.3913e-06, cumulative = 2.72807e-05
rho max/min : 10 10
DICPCG:  Solving for p, Initial residual = 0.000580401, Final residual = 5.67632e-06, No Iterations 29
diagonal:  Solving for rho, Initial residual = 0, Final residual = 0, No Iterations 0
time step continuity errors : sum local = 9.00544e-07, global = 8.11742e-08, cumulative = 2.73619e-05
rho max/min : 10 10
DICPCG:  Solving for p, Initial residual = 7.30446e-05, Final residual = 8.08442e-07, No Iterations 27
diagonal:  Solving for rho, Initial residual = 0, Final residual = 0, No Iterations 0
time step continuity errors : sum local = 1.2814e-07, global = -1.45606e-08, cumulative = 2.73473e-05
rho max/min : 10 10
DICPCG:  Solving for p, Initial residual = 1.06824e-05, Final residual = 9.9046e-07, No Iterations 6
diagonal:  Solving for rho, Initial residual = 0, Final residual = 0, No Iterations 0
time step continuity errors : sum local = 1.57021e-07, global = -1.85116e-08, cumulative = 2.73288e-05
rho max/min : 10 10
ExecutionTime = 20.1 s  ClockTime = 20 s

surfaceFieldValue volFlow_inlet write:
    sum(inlet) of phi = -0.000116587

surfaceFieldValue volFlow_outlet write:
    sum(outlet) of phi = 0.000116585

surfaceFieldValue volFlow_wall write:
    sum(wall) of phi = 7.44617e-24

Time = 0.099

Courant Number mean: 0.00456933 max: 0.0264749

 Coupling...
Starting up LIGGGHTS
Executing command: 'run 50    '
run 50    
Setting up run at Tue Oct  9 09:32:06 2018

Memory usage per processor = 11.7595 Mbytes
    Step    Atoms         KinEng            rke         Volume       centerOf       explDrag       explDrag       explDrag        cfd2[1]        cfd2[2]        cfd2[3] 
   19850    10000  6.0671472e-07  3.7503428e-08      5.076e-05   0.0077856832  0.00035658483 -0.00018863769    0.057254334  0.00053451818  -0.0002999001     0.09980768 
0.1986 0.000356584831928022 -0.000188637692314414 0.0572543338029618 0.00053068759111201 -0.000295056795725532 0.0997971174649106
   19860    10000  6.0849389e-07  3.7450246e-08      5.076e-05   0.0077866102  0.00035658483 -0.00018863769    0.057254334  0.00053068759  -0.0002950568    0.099797117 
0.1987 0.000356584831928022 -0.000188637692314414 0.0572543338029618 0.000528172266968261 -0.000289318048965609 0.0997827356401936
   19870    10000  6.1069787e-07   3.758756e-08      5.076e-05   0.0077875382  0.00035658483 -0.00018863769    0.057254334  0.00052817227 -0.00028931805    0.099782736 
0.1988 0.000356584831928022 -0.000188637692314414 0.0572543338029618 0.000527560750704282 -0.00028319131764447 0.099767706186682
   19880    10000  6.1302499e-07  3.7737832e-08      5.076e-05   0.0077884672  0.00035658483 -0.00018863769    0.057254334  0.00052756075 -0.00028319132    0.099767706 
0.1989 0.000356584831928022 -0.000188637692314414 0.0572543338029618 0.000528519237455735 -0.000277055804664663 0.0997520989182734
   19890    10000  6.1540091e-07   3.796385e-08      5.076e-05   0.0077893975  0.00035658483 -0.00018863769    0.057254334  0.00052851924  -0.0002770558    0.099752099 
CFD Coupling established at step 19900
0.199 0.000356584831928022 -0.000188637692314414 0.0572543338029618 0.000530130558925034 -0.000271634655611606 0.099735841047178
   19900    10000  6.1770816e-07  3.8216928e-08      5.076e-05   0.0077903289  0.00035658483 -0.00018863769    0.057254334  0.00053013056 -0.00027163466    0.099735841 
Loop time of 0.0490484 on 4 procs for 50 steps with 10000 atoms, finish time Tue Oct  9 09:32:06 2018


Pair  time (%) = 0.0369007 (75.2333)
Neigh time (%) = 0 (0)
Comm  time (%) = 0.00269614 (5.4969)
Outpt time (%) = 0.000536905 (1.09464)
Other time (%) = 0.00891462 (18.1751)

Nlocal:    2500 ave 2510 max 2493 min
Histogram: 1 0 1 1 0 0 0 0 0 1
Nghost:    738.25 ave 745 max 729 min
Histogram: 1 0 0 0 0 1 0 0 1 1
Neighs:    17301 ave 17386 max 17224 min
Histogram: 1 0 0 0 2 0 0 0 0 1

Total # of neighbors = 69204
Ave neighs/atom = 6.9204
Neighbor list builds = 0
Dangerous builds = 0
Executing command: 'write_restart ../DEM/post/restart/liggghts.restartCFDEM'
write_restart ../DEM/post/restart/liggghts.restartCFDEM
System init for write_restart ...
LIGGGHTS finished

 timeStepFraction() = 1

Solver level total Eulerian momentum exchange:
  TotalForceImp:  (-0.000242876 -0.000395273 -0.0427504)
  Warning, these values are based on latest Ksl and Us but prev. iteration U!

diagonal:  Solving for rho, Initial residual = 0, Final residual = 0, No Iterations 0
PIMPLE: iteration 1
DILUPBiCGStab:  Solving for Ux, Initial residual = 0.0823594, Final residual = 2.46211e-06, No Iterations 1
DILUPBiCGStab:  Solving for Uy, Initial residual = 0.074588, Final residual = 4.31951e-06, No Iterations 1
DILUPBiCGStab:  Solving for Uz, Initial residual = 0.0202059, Final residual = 8.19425e-07, No Iterations 1
DILUPBiCGStab:  Solving for h, Initial residual = 0.00986122, Final residual = 5.54912e-06, No Iterations 1
DICPCG:  Solving for p, Initial residual = 0.00739133, Final residual = 6.33187e-05, No Iterations 21
diagonal:  Solving for rho, Initial residual = 0, Final residual = 0, No Iterations 0
time step continuity errors : sum local = 1.00126e-05, global = 2.99325e-06, cumulative = 3.03221e-05
rho max/min : 10 10
DICPCG:  Solving for p, Initial residual = 0.000549244, Final residual = 4.96001e-06, No Iterations 19
diagonal:  Solving for rho, Initial residual = 0, Final residual = 0, No Iterations 0
time step continuity errors : sum local = 7.95597e-07, global = 2.30414e-07, cumulative = 3.05525e-05
rho max/min : 10 10
DICPCG:  Solving for p, Initial residual = 6.62757e-05, Final residual = 9.70736e-07, No Iterations 13
diagonal:  Solving for rho, Initial residual = 0, Final residual = 0, No Iterations 0
time step continuity errors : sum local = 1.55647e-07, global = -1.84382e-08, cumulative = 3.0534e-05
rho max/min : 10 10
DICPCG:  Solving for p, Initial residual = 9.39265e-06, Final residual = 8.8003e-07, No Iterations 7
diagonal:  Solving for rho, Initial residual = 0, Final residual = 0, No Iterations 0
time step continuity errors : sum local = 1.411e-07, global = -6.60885e-08, cumulative = 3.04679e-05
rho max/min : 10 10
ExecutionTime = 20.19 s  ClockTime = 20 s

surfaceFieldValue volFlow_inlet write:
    sum(inlet) of phi = -0.000116645

surfaceFieldValue volFlow_outlet write:
    sum(outlet) of phi = 0.000116641

surfaceFieldValue volFlow_wall write:
    sum(wall) of phi = 6.27134e-23

Time = 0.0995

Courant Number mean: 0.00454567 max: 0.0262686

 Coupling...
Starting up LIGGGHTS
Executing command: 'run 50    '
run 50    
Setting up run at Tue Oct  9 09:32:06 2018

Memory usage per processor = 11.7595 Mbytes
    Step    Atoms         KinEng            rke         Volume       centerOf       explDrag       explDrag       explDrag        cfd2[1]        cfd2[2]        cfd2[3] 
   19900    10000  6.1770816e-07  3.8216928e-08      5.076e-05   0.0077903289  0.00046179558  0.00051182039    0.057486344  0.00073982148  0.00094855397     0.10081499 
0.1991 0.000461795578790072 0.00051182039269228 0.0574863443115412 0.000738306371847278 0.000935197313138312 0.100777712717145
   19910    10000  6.2075705e-07  3.8326007e-08      5.076e-05    0.007791262  0.00046179558  0.00051182039    0.057486344  0.00073830637  0.00093519731     0.10077771 
0.1992 0.000461795578790072 0.00051182039269228 0.0574863443115412 0.000736899227367727 0.000922595098680653 0.100734992099393
   19920    10000  6.2403901e-07  3.8554377e-08      5.076e-05   0.0077921975  0.00046179558  0.00051182039    0.057486344  0.00073689923   0.0009225951     0.10073499 
0.1993 0.000461795578790072 0.00051182039269228 0.0574863443115412 0.000735888911199228 0.000911572271175961 0.100691745585389
   19930    10000  6.2738625e-07  3.8794071e-08      5.076e-05   0.0077931354  0.00046179558  0.00051182039    0.057486344  0.00073588891  0.00091157227     0.10069175 
0.1994 0.000461795578790072 0.00051182039269228 0.0574863443115412 0.000735672334574353 0.000902003365376069 0.100647924202494
   19940    10000  6.3078041e-07  3.8992007e-08      5.076e-05   0.0077940756  0.00046179558  0.00051182039    0.057486344  0.00073567233  0.00090200337     0.10064792 
0.1995 0.000461795578790072 0.00051182039269228 0.0574863443115412 0.000736343270091766 0.000893449174949258 0.10060348046416
   19950    10000  6.3415649e-07  3.9153938e-08      5.076e-05   0.0077950183  0.00046179558  0.00051182039    0.057486344  0.00073634327  0.00089344917     0.10060348 
Loop time of 0.0489165 on 4 procs for 50 steps with 10000 atoms, finish time Tue Oct  9 09:32:06 2018


Pair  time (%) = 0.0367131 (75.0525)
Neigh time (%) = 0 (0)
Comm  time (%) = 0.00266624 (5.4506)
Outpt time (%) = 0.000544021 (1.11214)
Other time (%) = 0.00899315 (18.3847)

Nlocal:    2500 ave 2510 max 2493 min
Histogram: 1 0 1 1 0 0 0 0 0 1
Nghost:    738.75 ave 745 max 730 min
Histogram: 1 0 0 0 0 1 0 0 1 1
Neighs:    17298.2 ave 17377 max 17228 min
Histogram: 1 0 0 0 2 0 0 0 0 1

Total # of neighbors = 69193
Ave neighs/atom = 6.9193
Neighbor list builds = 0
Dangerous builds = 0
Executing command: 'write_restart ../DEM/post/restart/liggghts.restartCFDEM'
write_restart ../DEM/post/restart/liggghts.restartCFDEM
System init for write_restart ...
LIGGGHTS finished

 timeStepFraction() = 1

Solver level total Eulerian momentum exchange:
  TotalForceImp:  (5.1824e-05 -0.000209461 -0.0437386)
  Warning, these values are based on latest Ksl and Us but prev. iteration U!

diagonal:  Solving for rho, Initial residual = 0, Final residual = 0, No Iterations 0
PIMPLE: iteration 1
DILUPBiCGStab:  Solving for Ux, Initial residual = 0.0702729, Final residual = 1.50126e-06, No Iterations 1
DILUPBiCGStab:  Solving for Uy, Initial residual = 0.0812141, Final residual = 1.81659e-06, No Iterations 1
DILUPBiCGStab:  Solving for Uz, Initial residual = 0.0166494, Final residual = 7.44826e-07, No Iterations 1
DILUPBiCGStab:  Solving for h, Initial residual = 0.0117675, Final residual = 5.85237e-06, No Iterations 1
DICPCG:  Solving for p, Initial residual = 0.00659762, Final residual = 5.88424e-05, No Iterations 22
diagonal:  Solving for rho, Initial residual = 0, Final residual = 0, No Iterations 0
time step continuity errors : sum local = 9.45724e-06, global = 5.48596e-06, cumulative = 3.59539e-05
rho max/min : 10 10
DICPCG:  Solving for p, Initial residual = 0.000572271, Final residual = 5.35794e-06, No Iterations 30
diagonal:  Solving for rho, Initial residual = 0, Final residual = 0, No Iterations 0
time step continuity errors : sum local = 8.2295e-07, global = -6.12778e-08, cumulative = 3.58926e-05
rho max/min : 10 10
DICPCG:  Solving for p, Initial residual = 6.01477e-05, Final residual = 8.4471e-07, No Iterations 26
diagonal:  Solving for rho, Initial residual = 0, Final residual = 0, No Iterations 0
time step continuity errors : sum local = 1.29628e-07, global = -2.28364e-09, cumulative = 3.58903e-05
rho max/min : 10 10
DICPCG:  Solving for p, Initial residual = 8.66769e-06, Final residual = 9.57415e-07, No Iterations 4
diagonal:  Solving for rho, Initial residual = 0, Final residual = 0, No Iterations 0
time step continuity errors : sum local = 1.46955e-07, global = 2.99705e-09, cumulative = 3.58933e-05
rho max/min : 10 10
ExecutionTime = 20.29 s  ClockTime = 20 s

surfaceFieldValue volFlow_inlet write:
    sum(inlet) of phi = -0.000117112

surfaceFieldValue volFlow_outlet write:
    sum(outlet) of phi = 0.000117112

surfaceFieldValue volFlow_wall write:
    sum(wall) of phi = -4.33028e-23

Time = 0.1

Courant Number mean: 0.00460767 max: 0.0391886

 Coupling...
Starting up LIGGGHTS
Executing command: 'run 50    '
run 50    
Setting up run at Tue Oct  9 09:32:06 2018

Memory usage per processor = 11.7595 Mbytes
    Step    Atoms         KinEng            rke         Volume       centerOf       explDrag       explDrag       explDrag        cfd2[1]        cfd2[2]        cfd2[3] 
   19950    10000  6.3415649e-07  3.9153938e-08      5.076e-05   0.0077950183  -2.904418e-06  0.00031887472    0.058941527 -1.5238249e-05  0.00053847205     0.10311318 
0.1996 -2.90441800971007e-06 0.000318874717233368 0.0589415272495468 -2.65303441756385e-06 0.000537924794918407 0.103033673603452
   19960    10000  6.3907032e-07  3.9079345e-08      5.076e-05   0.0077959644  -2.904418e-06  0.00031887472    0.058941527 -2.6530344e-06  0.00053792479     0.10303367 
0.1997 -2.90441800971007e-06 0.000318874717233368 0.0589415272495468 1.05699519327164e-05 0.000537511838899783 0.102948600967579
   19970    10000  6.4429045e-07  3.9181947e-08      5.076e-05   0.0077969151  -2.904418e-06  0.00031887472    0.058941527  1.0569952e-05  0.00053751184      0.1029486 
0.1998 -2.90441800971007e-06 0.000318874717233368 0.0589415272495468 2.34725193743756e-05 0.000537000695750202 0.102866035577766
   19980    10000  6.4947153e-07  3.9321574e-08      5.076e-05   0.0077978704  -2.904418e-06  0.00031887472    0.058941527  2.3472519e-05   0.0005370007     0.10286604 
0.1999 -2.90441800971007e-06 0.000318874717233368 0.0589415272495468 3.6211455771811e-05 0.000536143911818304 0.102785887792235
   19990    10000   6.546573e-07  3.9457466e-08      5.076e-05   0.0077988301  -2.904418e-06  0.00031887472    0.058941527  3.6211456e-05  0.00053614391     0.10278589 
CFD Coupling established at step 20000
0.2 -2.90441800971007e-06 0.000318874717233368 0.0589415272495468 4.88310532984539e-05 0.00053497893375224 0.102708232458623
   20000    10000  6.5984231e-07  3.9572036e-08      5.076e-05   0.0077997941  -2.904418e-06  0.00031887472    0.058941527  4.8831053e-05  0.00053497893     0.10270823 
Loop time of 0.057551 on 4 procs for 50 steps with 10000 atoms, finish time Tue Oct  9 09:32:06 2018


Pair  time (%) = 0.0365731 (63.549)
Neigh time (%) = 0 (0)
Comm  time (%) = 0.00266302 (4.62724)
Outpt time (%) = 0.0107043 (18.5997)
Other time (%) = 0.00761057 (13.224)

Nlocal:    2500 ave 2511 max 2493 min
Histogram: 1 0 1 1 0 0 0 0 0 1
Nghost:    739.25 ave 747 max 730 min
Histogram: 1 0 0 0 1 0 0 1 0 1
Neighs:    17295 ave 17382 max 17225 min
Histogram: 1 0 0 1 1 0 0 0 0 1

Total # of neighbors = 69180
Ave neighs/atom = 6.918
Neighbor list builds = 0
Dangerous builds = 0
Executing command: 'write_restart ../DEM/post/restart/liggghts.restartCFDEM'
write_restart ../DEM/post/restart/liggghts.restartCFDEM
System init for write_restart ...
LIGGGHTS finished

 timeStepFraction() = 1

Solver level total Eulerian momentum exchange:
  TotalForceImp:  (-0.00040999 0.000144463 -0.0411191)
  Warning, these values are based on latest Ksl and Us but prev. iteration U!

diagonal:  Solving for rho, Initial residual = 0, Final residual = 0, No Iterations 0
PIMPLE: iteration 1
DILUPBiCGStab:  Solving for Ux, Initial residual = 0.0810714, Final residual = 2.31717e-06, No Iterations 1
DILUPBiCGStab:  Solving for Uy, Initial residual = 0.0787065, Final residual = 2.34308e-06, No Iterations 1
DILUPBiCGStab:  Solving for Uz, Initial residual = 0.0169449, Final residual = 7.76581e-07, No Iterations 1
DILUPBiCGStab:  Solving for h, Initial residual = 0.0204486, Final residual = 7.53715e-06, No Iterations 1
DICPCG:  Solving for p, Initial residual = 0.0103555, Final residual = 8.31719e-05, No Iterations 13
diagonal:  Solving for rho, Initial residual = 0, Final residual = 0, No Iterations 0
time step continuity errors : sum local = 1.28011e-05, global = -7.19102e-06, cumulative = 2.87023e-05
rho max/min : 10 10
DICPCG:  Solving for p, Initial residual = 0.000873405, Final residual = 6.84574e-06, No Iterations 28
diagonal:  Solving for rho, Initial residual = 0, Final residual = 0, No Iterations 0
time step continuity errors : sum local = 1.05267e-06, global = 8.07774e-09, cumulative = 2.87104e-05
rho max/min : 10 10
DICPCG:  Solving for p, Initial residual = 9.88869e-05, Final residual = 9.22523e-07, No Iterations 26
diagonal:  Solving for rho, Initial residual = 0, Final residual = 0, No Iterations 0
time step continuity errors : sum local = 1.42046e-07, global = -1.16183e-08, cumulative = 2.86988e-05
rho max/min : 10 10
DICPCG:  Solving for p, Initial residual = 1.31221e-05, Final residual = 9.05804e-07, No Iterations 5
diagonal:  Solving for rho, Initial residual = 0, Final residual = 0, No Iterations 0
time step continuity errors : sum local = 1.39431e-07, global = -2.46923e-09, cumulative = 2.86963e-05
rho max/min : 10 10
ExecutionTime = 20.4 s  ClockTime = 20 s

surfaceFieldValue volFlow_inlet write:
    sum(inlet) of phi = -0.000118062

surfaceFieldValue volFlow_outlet write:
    sum(outlet) of phi = 0.000118062

surfaceFieldValue volFlow_wall write:
    sum(wall) of phi = -4.713e-24

End

Finalising parallel run
