
//   run_parallel_rhoCfdemSolverPimple_settlingTestMPI_CFDDEM   //

/home/eadaymo/CFDEM/eadaymo-PUBLIC-KIT-5.x-3.8.0/run/CFDEM_compressible/tutorials/compressible/rhoCfdemSolverPimple/settlingTestMPI-rho10-V2/CFD

--------------------------------------------------------------------------
[[32757,1],0]: A high-performance Open MPI point-to-point messaging module
was unable to find any relevant network interfaces:

Module: OpenFabrics (openib)
  Host: langmuir

Another transport will be used instead, although this may result in
lower performance.

NOTE: You can disable this warning by setting the MCA parameter
btl_base_warn_component_unused to 0.
--------------------------------------------------------------------------
/*---------------------------------------------------------------------------*\
| =========                 |                                                 |
| \\      /  F ield         | OpenFOAM: The Open Source CFD Toolbox           |
|  \\    /   O peration     | Version:  5.x                                   |
|   \\  /    A nd           | Web:      www.OpenFOAM.org                      |
|    \\/     M anipulation  |                                                 |
\*---------------------------------------------------------------------------*/
Build  : 5.x-7f7d351b741b
Exec   : rhoCfdemSolverPimple -parallel
Date   : Jun 11 2020
Time   : 07:22:56
Host   : "langmuir"
PID    : 6099
I/O    : uncollated
Case   : /home/eadaymo/CFDEM/eadaymo-PUBLIC-KIT-5.x-3.8.0/run/CFDEM_compressible/tutorials/compressible/rhoCfdemSolverPimple/settlingTestMPI-rho10-V2/CFD
nProcs : 2
Slaves : 1("langmuir.6100")
Pstream initialized with:
    floatTransfer      : 0
    nProcsSimpleSum    : 0
    commsType          : nonBlocking
    polling iterations : 0
sigFpe : Enabling floating point exception trapping (FOAM_SIGFPE).
fileModificationChecking : Monitoring run-time modified files using timeStampMaster (fileModificationSkew 10)
allowSystemOperations : Allowing user-supplied system call operations

// * * * * * * * * * * * * * * * * * * * * * * * * * * * * * * * * * * * * * //
Create time

Create mesh for time = 0


PIMPLE: Operating solver in PISO mode

Reading thermophysical properties

Selecting thermodynamics package 
{
    type            heRhoThermo;
    mixture         pureMixture;
    transport       const;
    thermo          hConst;
    equationOfState rhoConst;
    specie          specie;
    energy          sensibleEnthalpy;
}

Reading physical velocity field U
Note: only if voidfraction at boundary is 1, U is superficial velocity!!!


Reading momentum exchange field Ksl


Reading voidfraction field voidfraction = (Vgas/Vparticle)

Reading particle velocity field Us

Reading/calculating face flux field phi

Generating interstitial face flux field phiByVoidfraction

Creating turbulence model

Selecting turbulence model type laminar
Selecting laminar stress model Stokes
Creating field DpDt

Creating field kinetic energy K

No MRF models present

No finite volume options present


Reading g
Selecting locateModel engine
Selecting dataExchangeModel twoWayMPI
Starting up LIGGGHTS for first time execution
Executing input script '../DEM/in.liggghts_run'
LIGGGHTS (Version LIGGGHTS-PUBLIC 3.8.0, compiled 2020-06-10-17:38:37 by eadaymo, git commit ce1931e377a2945e3fa25dae0eebc1f697009a32)
log             ../DEM/log.liggghts
thermo_log      ../DEM/post/thermo.txt

atom_style      granular
atom_modify     map array sort 0 0
communicate     single vel yes

boundary        f f f
newton          off

units           si

region          reg block 0 0.1 0 0.1 0 0.1 units box
create_box      1 reg
Created orthogonal box = (0 0 0) to (0.1 0.1 0.1)
  1 by 1 by 2 MPI processor grid

neighbor        0.003 bin
neigh_modify    delay 0 binsize 0.01


# Material properties required for granular pair styles
fix         m1 all property/global youngsModulus peratomtype 5.e6
fix         m2 all property/global poissonsRatio peratomtype 0.45
fix         m3 all property/global coefficientRestitution peratomtypepair 1 0.3
fix         m4 all property/global coefficientFriction peratomtypepair 1 0.5
#fix         m5 all property/global characteristicVelocity scalar 2.0

# pair style
pair_style  gran model hertz tangential history # hertz without cohesion
pair_coeff  * *

# timestep, gravity
timestep    0.00001
fix         gravi all gravity 9.81 vector 0.0 -1.0 0.0

# walls
fix     xwalls1 all wall/gran model hertz tangential history primitive type 1 xplane 0.0
fix     xwalls2 all wall/gran model hertz tangential history primitive type 1 xplane 0.1
fix     ywalls1 all wall/gran model hertz tangential history primitive type 1 yplane 0.0
fix     ywalls2 all wall/gran model hertz tangential history primitive type 1 yplane 0.1
fix     zwalls1 all wall/gran model hertz tangential history primitive type 1 zplane 0.0
fix     zwalls2 all wall/gran model hertz tangential history primitive type 1 zplane 0.01

# create single partciles
create_atoms    1 single 0.05 0.025  0.05 units box
Created 1 atoms
set             group all diameter 0.0001 density 3000
Setting atom values ...
  1 settings made for diameter
  1 settings made for density

# cfd coupling
fix     cfd all couple/cfd couple_every 100 mpi
couple_every as specified in LIGGGHTS is overriden by calling external program (../fix_cfd_coupling.cpp:114)
fix     cfd2 all couple/cfd/force

variable    vx equal vx[1]
variable    vy equal vy[1]
variable    vz equal vz[1]
variable    time equal step*dt
fix         extra all print 100 "${time} ${vx} ${vy} ${vz}" file ../DEM/post/velocity.txt title "#" screen no

# apply nve integration to all particles that are inserted as single particles
fix         integr all nve/sphere

# screen output
compute         rke all erotate/sphere
thermo_style    custom step atoms ke c_rke vol
thermo          1000
thermo_modify   lost ignore norm no
compute_modify  thermo_temp dynamic yes
WARNING: Changing thermo_temp compute object. This object is deprecated and will be removed in the future. (../compute.cpp:161)

# insert the first particles so that dump is not empty
run     0
Setting up run at Thu Jun 11 07:22:57 2020

Memory usage per processor = 4.23785 Mbytes
    Step    Atoms         KinEng            rke         Volume 
       0        1              0              0          0.001 
Loop time of 4.222e-06 on 2 procs for 0 steps with 1 atoms, finish time Thu Jun 11 07:22:57 2020


Pair  time (%) = 0 (0)
Neigh time (%) = 0 (0)
Comm  time (%) = 0 (0)
Outpt time (%) = 0 (0)
Other time (%) = 4.222e-06 (100)

Nlocal:    0.5 ave 1 max 0 min
Histogram: 1 0 0 0 0 0 0 0 0 1
Nghost:    0.5 ave 1 max 0 min
Histogram: 1 0 0 0 0 0 0 0 0 1
Neighs:    0 ave 0 max 0 min
Histogram: 2 0 0 0 0 0 0 0 0 0

Total # of neighbors = 0
Ave neighs/atom = 0
Neighbor list builds = 0
Dangerous builds = 0
dump    dmp all custom 1000 ../DEM/post/dump.liggghts_run id type x y z ix iy iz vx vy vz fx fy fz omegax omegay omegaz radius

run     0 upto
Setting up run at Thu Jun 11 07:22:57 2020

Memory usage per processor = 4.23805 Mbytes
    Step    Atoms         KinEng            rke         Volume 
       0        1              0              0          0.001 
Loop time of 1.779e-06 on 2 procs for 0 steps with 1 atoms, finish time Thu Jun 11 07:22:57 2020


Pair  time (%) = 0 (0)
Neigh time (%) = 0 (0)
Comm  time (%) = 0 (0)
Outpt time (%) = 0 (0)
Other time (%) = 1.779e-06 (100)

Nlocal:    0.5 ave 1 max 0 min
Histogram: 1 0 0 0 0 0 0 0 0 1
Nghost:    0.5 ave 1 max 0 min
Histogram: 1 0 0 0 0 0 0 0 0 1
Neighs:    0 ave 0 max 0 min
Histogram: 2 0 0 0 0 0 0 0 0 0

Total # of neighbors = 0
Ave neighs/atom = 0
Neighbor list builds = 0
Dangerous builds = 0
Selecting IOModel basicIO
Selecting probeModel off
Selecting voidFractionModel divided
Selecting averagingModel dense
Selecting clockModel off
start clock measurement at t >0.002
Selecting smoothingModel constDiffSmoothing
Selecting meshMotionModel noMeshMotion

CFDEMcoupling version: cfdem-3.8.1
, compatible to LIGGGHTS version: 3.8.0
, compatible to OF version and build: 5.x-commit-538044ac05c4672b37c7df607dca1116fa88df88

You are currently using:
OF version: 5.x
OF build: 5.x-7f7d351b741b
CFDEM build: 

cg is set to: 1
LIGGGHTS hosts 1 atom types.
If BC are important, please provide volScalarFields -imp/expParticleForces-
ignoring ddt(voidfraction)
Selecting momCoupleModel implicitCouple

implicit momentum exchange field calculate if alphaP larger than : 1
Selecting forceModel DiFeliceDrag
 Selecting forceSubModel ImEx
 reading switches:
  looking for treatForceExplicit ...  not found in dict, using default. treatForceExplicit = false
  looking for implForceDEM ...  not found in dict, using default. implForceDEM = false
  looking for verbose ...  found in dict. verbose = true
  looking for interpolation ...  not found in dict, using default. interpolation = false
  looking for scalarViscosity ...  not found in dict, using default. scalarViscosity = false

--> FOAM Warning : Please make sure you use the new nomenclature for verbose force model settings, please have a look at the forceSubModel doc.
Selecting forceModel Archimedes
 Selecting forceSubModel ImEx
 reading switches:
  looking for verbose ...  not found in dict, using default. verbose = false

Selecting liggghtsCommandModel runLiggghts ,provide dicts, numbered from 0 to n
Selecting liggghtsCommandModel writeLiggghts ,provide dicts, numbered from 0 to n
Using user defined path to write LIGGGHTS restart file: "../DEM/post/restart"
writeLiggghts: A restart file writeName_write_restart ../DEM/post/restart/liggghts.restartCFDEM is written.
firstCouplingStep = 1
lastCouplingStep = 1000000000
couplingStepInterval = 1
nextRun = -1
solving volume averaged Navier Stokes equations of type B


Starting time loop

Time = 0.001

Courant Number mean: 0 max: 0

 Coupling...
Starting up LIGGGHTS
Executing command: 'run 100    '
run 100    
Setting up run at Thu Jun 11 07:22:57 2020

Memory usage per processor = 4.23805 Mbytes
    Step    Atoms         KinEng            rke         Volume 
       0        1              0              0          0.001 
CFD Coupling established at step 100
     100        1  7.5583656e-14              0          0.001 
Loop time of 0.000546639 on 2 procs for 100 steps with 1 atoms, finish time Thu Jun 11 07:22:57 2020


Pair  time (%) = 4.8032e-05 (8.78678)
Neigh time (%) = 0 (0)
Comm  time (%) = 9.36435e-05 (17.1308)
Outpt time (%) = 2.2889e-05 (4.18722)
Other time (%) = 0.000382075 (69.8952)

Nlocal:    0.5 ave 1 max 0 min
Histogram: 1 0 0 0 0 0 0 0 0 1
Nghost:    0.5 ave 1 max 0 min
Histogram: 1 0 0 0 0 0 0 0 0 1
Neighs:    0 ave 0 max 0 min
Histogram: 2 0 0 0 0 0 0 0 0 0

Total # of neighbors = 0
Ave neighs/atom = 0
Neighbor list builds = 0
Dangerous builds = 0
couplingStep = 1
LIGGGHTS finished
DICPCG:  Solving for sSmoothField, Initial residual = 0.0283381, Final residual = 1.26885e-06, No Iterations 2
DICPCG:  Solving for vSmoothFieldx, Initial residual = 0, Final residual = 0, No Iterations 0
DICPCG:  Solving for vSmoothFieldy, Initial residual = 5.83279e-07, Final residual = 5.83279e-07, No Iterations 0
DICPCG:  Solving for vSmoothFieldz, Initial residual = 0, Final residual = 0, No Iterations 0

 timeStepFraction() = 1
[0] index = 0
[0] Us = (0 -0.00981 0)
[0] Ur = (0 0.00981 0)
[0] dprim = 0.0001
[0] dParcel = 0.0001
[0] rho = 10
[0] nuf = 1e-05
[0] voidfraction = 0.99998
[0] Rep = 0.098098
[0] Cd = 254.574
[0] dragCoefficient = 9.80769e-08
[0] drag (total) = (0 9.62134e-10 0)
DICPCG:  Solving for vSmoothFieldx, Initial residual = 0, Final residual = 0, No Iterations 0
DICPCG:  Solving for vSmoothFieldy, Initial residual = 0.0283381, Final residual = 1.26885e-06, No Iterations 2
DICPCG:  Solving for vSmoothFieldz, Initial residual = 0, Final residual = 0, No Iterations 0

Solver level total Eulerian momentum exchange:
  TotalForceImp:  (0 -9.1041e-10 0)
  Warning, these values are based on latest Ksl and Us but prev. iteration U!

diagonal:  Solving for rho, Initial residual = 0, Final residual = 0, No Iterations 0
DILUPBiCGStab:  Solving for Ux, Initial residual = 0.999995, Final residual = 1.28796e-07, No Iterations 1
DILUPBiCGStab:  Solving for Uy, Initial residual = 1, Final residual = 4.90373e-06, No Iterations 1
DILUPBiCGStab:  Solving for Uz, Initial residual = 0.999995, Final residual = 1.28796e-07, No Iterations 1
DILUPBiCGStab:  Solving for h, Initial residual = 1, Final residual = 9.94535e-06, No Iterations 1
DICPCG:  Solving for p, Initial residual = 1, Final residual = 0.0037687, No Iterations 15
diagonal:  Solving for rho, Initial residual = 0, Final residual = 0, No Iterations 0
time step continuity errors : sum local = 5.98688, global = 0.00195188, cumulative = 0.00195188
rho max/min : 10 10
DICPCG:  Solving for p, Initial residual = 0.341528, Final residual = 0.00148681, No Iterations 16
diagonal:  Solving for rho, Initial residual = 0, Final residual = 0, No Iterations 0
time step continuity errors : sum local = 0.0381334, global = -0.00286553, cumulative = -0.00091364
rho max/min : 10 10
DICPCG:  Solving for p, Initial residual = 0.990668, Final residual = 0.00827184, No Iterations 6
diagonal:  Solving for rho, Initial residual = 0, Final residual = 0, No Iterations 0
time step continuity errors : sum local = 0.000411336, global = -7.24657e-05, cumulative = -0.000986106
rho max/min : 10 10
DICPCG:  Solving for p, Initial residual = 0.204999, Final residual = 3.01361e-07, No Iterations 22
diagonal:  Solving for rho, Initial residual = 0, Final residual = 0, No Iterations 0
time step continuity errors : sum local = 5.9481e-10, global = -9.85489e-12, cumulative = -0.000986106
rho max/min : 10 10
ExecutionTime = 0.03 s  ClockTime = 1 s

Time = 0.002

Courant Number mean: 7.45276e-08 max: 2.81205e-07

 Coupling...
Starting up LIGGGHTS
Executing command: 'run 100    '
run 100    
Setting up run at Thu Jun 11 07:22:57 2020

Memory usage per processor = 4.23805 Mbytes
    Step    Atoms         KinEng            rke         Volume 
     100        1  7.5583656e-14              0          0.001 
CFD Coupling established at step 200
     200        1  2.8277673e-13              0          0.001 
Loop time of 0.000263251 on 2 procs for 100 steps with 1 atoms, finish time Thu Jun 11 07:22:57 2020


Pair  time (%) = 2.2954e-05 (8.71942)
Neigh time (%) = 0 (0)
Comm  time (%) = 4.9071e-05 (18.6404)
Outpt time (%) = 1.2925e-05 (4.90975)
Other time (%) = 0.000178301 (67.7305)

Nlocal:    0.5 ave 1 max 0 min
Histogram: 1 0 0 0 0 0 0 0 0 1
Nghost:    0.5 ave 1 max 0 min
Histogram: 1 0 0 0 0 0 0 0 0 1
Neighs:    0 ave 0 max 0 min
Histogram: 2 0 0 0 0 0 0 0 0 0

Total # of neighbors = 0
Ave neighs/atom = 0
Neighbor list builds = 0
Dangerous builds = 0
couplingStep = 2
LIGGGHTS finished
DICPCG:  Solving for sSmoothField, Initial residual = 0.0283381, Final residual = 1.1888e-06, No Iterations 2
DICPCG:  Solving for vSmoothFieldx, Initial residual = 0, Final residual = 0, No Iterations 0
DICPCG:  Solving for vSmoothFieldy, Initial residual = 5.83279e-07, Final residual = 5.83279e-07, No Iterations 0
DICPCG:  Solving for vSmoothFieldz, Initial residual = 0, Final residual = 0, No Iterations 0

 timeStepFraction() = 1
[0] index = 0
[0] Us = (0 -0.0189748 0)
[0] Ur = (1.36602e-08 0.0189712 1.36602e-08)
[0] dprim = 0.0001
[0] dParcel = 0.0001
[0] rho = 10
[0] nuf = 1e-05
[0] voidfraction = 0.999983
[0] Rep = 0.189709
[0] Cd = 135.732
[0] dragCoefficient = 1.01125e-07
[0] drag (total) = (1.38138e-15 1.91845e-09 1.38138e-15)
DICPCG:  Solving for vSmoothFieldx, Initial residual = 0.0283381, Final residual = 1.1888e-06, No Iterations 2
DICPCG:  Solving for vSmoothFieldy, Initial residual = 0.0283381, Final residual = 1.1888e-06, No Iterations 2
DICPCG:  Solving for vSmoothFieldz, Initial residual = 0.0283381, Final residual = 1.1888e-06, No Iterations 2

Solver level total Eulerian momentum exchange:
  TotalForceImp:  (-1.4096e-12 -1.80831e-09 -1.4096e-12)
  Warning, these values are based on latest Ksl and Us but prev. iteration U!

diagonal:  Solving for rho, Initial residual = 0, Final residual = 0, No Iterations 0
DILUPBiCGStab:  Solving for Ux, Initial residual = 0.691495, Final residual = 1.57592e-07, No Iterations 1
DILUPBiCGStab:  Solving for Uy, Initial residual = 0.881301, Final residual = 5.13594e-08, No Iterations 1
DILUPBiCGStab:  Solving for Uz, Initial residual = 0.691495, Final residual = 1.57592e-07, No Iterations 1
DILUPBiCGStab:  Solving for h, Initial residual = 0.999631, Final residual = 0.000409196, No Iterations 1
DICPCG:  Solving for p, Initial residual = 0.957201, Final residual = 0.00795959, No Iterations 16
diagonal:  Solving for rho, Initial residual = 0, Final residual = 0, No Iterations 0
time step continuity errors : sum local = 2.37572e-06, global = -8.0836e-09, cumulative = -0.000986114
rho max/min : 10 10
DICPCG:  Solving for p, Initial residual = 0.0027925, Final residual = 9.64729e-06, No Iterations 16
diagonal:  Solving for rho, Initial residual = 0, Final residual = 0, No Iterations 0
time step continuity errors : sum local = 9.75666e-09, global = -5.0191e-10, cumulative = -0.000986115
rho max/min : 10 10
DICPCG:  Solving for p, Initial residual = 1.43865e-05, Final residual = 7.52454e-07, No Iterations 3
diagonal:  Solving for rho, Initial residual = 0, Final residual = 0, No Iterations 0
time step continuity errors : sum local = 7.57578e-10, global = -3.71379e-11, cumulative = -0.000986115
rho max/min : 10 10
DICPCG:  Solving for p, Initial residual = 7.57266e-07, Final residual = 7.57266e-07, No Iterations 0
diagonal:  Solving for rho, Initial residual = 0, Final residual = 0, No Iterations 0
time step continuity errors : sum local = 7.62423e-10, global = -3.50402e-11, cumulative = -0.000986115
rho max/min : 10 10
ExecutionTime = 0.03 s  ClockTime = 1 s

Time = 0.003

Courant Number mean: 5.07801e-05 max: 0.000797523

 Coupling...
Starting up LIGGGHTS
Executing command: 'run 100    '
run 100    
Setting up run at Thu Jun 11 07:22:57 2020

Memory usage per processor = 4.23805 Mbytes
    Step    Atoms         KinEng            rke         Volume 
     200        1  2.8277673e-13              0          0.001 
CFD Coupling established at step 300
     300        1  5.9528693e-13              0          0.001 
Loop time of 0.000259344 on 2 procs for 100 steps with 1 atoms, finish time Thu Jun 11 07:22:57 2020


Pair  time (%) = 2.20645e-05 (8.50781)
Neigh time (%) = 0 (0)
Comm  time (%) = 4.81125e-05 (18.5516)
Outpt time (%) = 1.23205e-05 (4.75064)
Other time (%) = 0.000176846 (68.1899)

Nlocal:    0.5 ave 1 max 0 min
Histogram: 1 0 0 0 0 0 0 0 0 1
Nghost:    0.5 ave 1 max 0 min
Histogram: 1 0 0 0 0 0 0 0 0 1
Neighs:    0 ave 0 max 0 min
Histogram: 2 0 0 0 0 0 0 0 0 0

Total # of neighbors = 0
Ave neighs/atom = 0
Neighbor list builds = 0
Dangerous builds = 0
couplingStep = 3
LIGGGHTS finished
DICPCG:  Solving for sSmoothField, Initial residual = 0.0283381, Final residual = 1.14283e-06, No Iterations 2
DICPCG:  Solving for vSmoothFieldx, Initial residual = 5.83279e-07, Final residual = 5.83279e-07, No Iterations 0
DICPCG:  Solving for vSmoothFieldy, Initial residual = 5.83279e-07, Final residual = 5.83279e-07, No Iterations 0
DICPCG:  Solving for vSmoothFieldz, Initial residual = 5.83279e-07, Final residual = 5.83279e-07, No Iterations 0

 timeStepFraction() = 1
[0] index = 0
[0] Us = (8.79412e-10 -0.0275308 8.79412e-10)
[0] Ur = (0.000230572 0.0283667 0.000230572)
[0] dprim = 0.0001
[0] dParcel = 0.0001
[0] rho = 10
[0] nuf = 1e-05
[0] voidfraction = 0.999986
[0] Rep = 0.283682
[0] Cd = 92.9698
[0] dragCoefficient = 1.03575e-07
[0] drag (total) = (2.38816e-11 2.93809e-09 2.38816e-11)
DICPCG:  Solving for vSmoothFieldx, Initial residual = 0.0283381, Final residual = 1.14283e-06, No Iterations 2
DICPCG:  Solving for vSmoothFieldy, Initial residual = 0.0283381, Final residual = 1.14283e-06, No Iterations 2
DICPCG:  Solving for vSmoothFieldz, Initial residual = 0.0283381, Final residual = 1.14283e-06, No Iterations 2

Solver level total Eulerian momentum exchange:
  TotalForceImp:  (-1.83981e-11 -2.87701e-09 -1.83981e-11)
  Warning, these values are based on latest Ksl and Us but prev. iteration U!

diagonal:  Solving for rho, Initial residual = 0, Final residual = 0, No Iterations 0
DILUPBiCGStab:  Solving for Ux, Initial residual = 0.360484, Final residual = 3.56152e-07, No Iterations 1
DILUPBiCGStab:  Solving for Uy, Initial residual = 0.287851, Final residual = 1.67037e-07, No Iterations 1
DILUPBiCGStab:  Solving for Uz, Initial residual = 0.360484, Final residual = 3.56152e-07, No Iterations 1
DILUPBiCGStab:  Solving for h, Initial residual = 0.0938104, Final residual = 1.43422e-06, No Iterations 1
DICPCG:  Solving for p, Initial residual = 0.561379, Final residual = 0.00478333, No Iterations 16
diagonal:  Solving for rho, Initial residual = 0, Final residual = 0, No Iterations 0
time step continuity errors : sum local = 4.93407e-06, global = 4.79862e-08, cumulative = -0.000986067
rho max/min : 10 10
DICPCG:  Solving for p, Initial residual = 0.00731609, Final residual = 3.60804e-05, No Iterations 16
diagonal:  Solving for rho, Initial residual = 0, Final residual = 0, No Iterations 0
time step continuity errors : sum local = 3.06899e-08, global = 1.34679e-09, cumulative = -0.000986065
rho max/min : 10 10
DICPCG:  Solving for p, Initial residual = 4.63315e-05, Final residual = 7.57616e-07, No Iterations 4
diagonal:  Solving for rho, Initial residual = 0, Final residual = 0, No Iterations 0
time step continuity errors : sum local = 6.3656e-10, global = 6.34577e-11, cumulative = -0.000986065
rho max/min : 10 10
DICPCG:  Solving for p, Initial residual = 7.60181e-07, Final residual = 7.60181e-07, No Iterations 0
diagonal:  Solving for rho, Initial residual = 0, Final residual = 0, No Iterations 0
time step continuity errors : sum local = 6.38717e-10, global = 5.79675e-11, cumulative = -0.000986065
rho max/min : 10 10
ExecutionTime = 0.04 s  ClockTime = 1 s

Time = 0.004

Courant Number mean: 9.26234e-06 max: 0.000122662

 Coupling...
Starting up LIGGGHTS
Executing command: 'run 100    '
run 100    
Setting up run at Thu Jun 11 07:22:57 2020

Memory usage per processor = 4.23805 Mbytes
    Step    Atoms         KinEng            rke         Volume 
     300        1  5.9528693e-13              0          0.001 
CFD Coupling established at step 400
     400        1  9.8632268e-13              0          0.001 
Loop time of 0.000257566 on 2 procs for 100 steps with 1 atoms, finish time Thu Jun 11 07:22:57 2020


Pair  time (%) = 2.46515e-05 (9.57093)
Neigh time (%) = 0 (0)
Comm  time (%) = 4.7593e-05 (18.4779)
Outpt time (%) = 1.1761e-05 (4.5662)
Other time (%) = 0.000173561 (67.3849)

Nlocal:    0.5 ave 1 max 0 min
Histogram: 1 0 0 0 0 0 0 0 0 1
Nghost:    0.5 ave 1 max 0 min
Histogram: 1 0 0 0 0 0 0 0 0 1
Neighs:    0 ave 0 max 0 min
Histogram: 2 0 0 0 0 0 0 0 0 0

Total # of neighbors = 0
Ave neighs/atom = 0
Neighbor list builds = 0
Dangerous builds = 0
couplingStep = 4
LIGGGHTS finished
DICPCG:  Solving for sSmoothField, Initial residual = 0.0283381, Final residual = 1.14283e-06, No Iterations 2
DICPCG:  Solving for vSmoothFieldx, Initial residual = 5.83279e-07, Final residual = 5.83279e-07, No Iterations 0
DICPCG:  Solving for vSmoothFieldy, Initial residual = 5.83279e-07, Final residual = 5.83279e-07, No Iterations 0
DICPCG:  Solving for vSmoothFieldz, Initial residual = 5.83279e-07, Final residual = 5.83279e-07, No Iterations 0

 timeStepFraction() = 1
[0] index = 0
[0] Us = (1.52043e-05 -0.0354376 1.52043e-05)
[0] Ur = (0.000139397 0.0356994 0.000139397)
[0] dprim = 0.0001
[0] dParcel = 0.0001
[0] rho = 10
[0] nuf = 1e-05
[0] voidfraction = 0.999986
[0] Rep = 0.356995
[0] Cd = 75.058
[0] dragCoefficient = 1.0523e-07
[0] drag (total) = (1.46687e-11 3.75666e-09 1.46687e-11)
DICPCG:  Solving for vSmoothFieldx, Initial residual = 0.0283381, Final residual = 1.14283e-06, No Iterations 2
DICPCG:  Solving for vSmoothFieldy, Initial residual = 0.0283381, Final residual = 1.14283e-06, No Iterations 2
DICPCG:  Solving for vSmoothFieldz, Initial residual = 0.0283381, Final residual = 1.14283e-06, No Iterations 2

Solver level total Eulerian momentum exchange:
  TotalForceImp:  (-1.90813e-11 -3.47659e-09 -1.90813e-11)
  Warning, these values are based on latest Ksl and Us but prev. iteration U!

diagonal:  Solving for rho, Initial residual = 0, Final residual = 0, No Iterations 0
DILUPBiCGStab:  Solving for Ux, Initial residual = 0.724913, Final residual = 5.54803e-07, No Iterations 1
DILUPBiCGStab:  Solving for Uy, Initial residual = 0.734946, Final residual = 3.56311e-07, No Iterations 1
DILUPBiCGStab:  Solving for Uz, Initial residual = 0.724913, Final residual = 5.54803e-07, No Iterations 1
DILUPBiCGStab:  Solving for h, Initial residual = 0.0711337, Final residual = 1.05204e-06, No Iterations 1
DICPCG:  Solving for p, Initial residual = 0.260601, Final residual = 0.00222295, No Iterations 16
diagonal:  Solving for rho, Initial residual = 0, Final residual = 0, No Iterations 0
time step continuity errors : sum local = 1.56324e-06, global = -8.52056e-09, cumulative = -0.000986074
rho max/min : 10 10
DICPCG:  Solving for p, Initial residual = 0.0106415, Final residual = 6.05254e-05, No Iterations 16
diagonal:  Solving for rho, Initial residual = 0, Final residual = 0, No Iterations 0
time step continuity errors : sum local = 1.13955e-08, global = -4.55621e-10, cumulative = -0.000986074
rho max/min : 10 10
DICPCG:  Solving for p, Initial residual = 7.4608e-05, Final residual = 7.17297e-07, No Iterations 6
diagonal:  Solving for rho, Initial residual = 0, Final residual = 0, No Iterations 0
time step continuity errors : sum local = 1.32252e-10, global = -9.50639e-12, cumulative = -0.000986074
rho max/min : 10 10
DICPCG:  Solving for p, Initial residual = 7.76556e-07, Final residual = 7.76556e-07, No Iterations 0
diagonal:  Solving for rho, Initial residual = 0, Final residual = 0, No Iterations 0
time step continuity errors : sum local = 1.43175e-10, global = -7.79936e-12, cumulative = -0.000986074
rho max/min : 10 10
ExecutionTime = 0.05 s  ClockTime = 1 s

Time = 0.005

Courant Number mean: 6.4036e-06 max: 6.687e-05

 Coupling...
Starting up LIGGGHTS
Executing command: 'run 100    '
run 100    
Setting up run at Thu Jun 11 07:22:57 2020

Memory usage per processor = 4.23805 Mbytes
    Step    Atoms         KinEng            rke         Volume 
     400        1  9.8632268e-13              0          0.001 
CFD Coupling established at step 500
     500        1  1.4402951e-12              0          0.001 
Loop time of 0.000260044 on 2 procs for 100 steps with 1 atoms, finish time Thu Jun 11 07:22:57 2020


Pair  time (%) = 2.29535e-05 (8.82679)
Neigh time (%) = 0 (0)
Comm  time (%) = 4.9726e-05 (19.1222)
Outpt time (%) = 1.1901e-05 (4.57654)
Other time (%) = 0.000175463 (67.4745)

Nlocal:    0.5 ave 1 max 0 min
Histogram: 1 0 0 0 0 0 0 0 0 1
Nghost:    0.5 ave 1 max 0 min
Histogram: 1 0 0 0 0 0 0 0 0 1
Neighs:    0 ave 0 max 0 min
Histogram: 2 0 0 0 0 0 0 0 0 0

Total # of neighbors = 0
Ave neighs/atom = 0
Neighbor list builds = 0
Dangerous builds = 0
couplingStep = 5
LIGGGHTS finished
DICPCG:  Solving for sSmoothField, Initial residual = 0.0283381, Final residual = 1.14283e-06, No Iterations 2
DICPCG:  Solving for vSmoothFieldx, Initial residual = 5.83279e-07, Final residual = 5.83279e-07, No Iterations 0
DICPCG:  Solving for vSmoothFieldy, Initial residual = 5.83279e-07, Final residual = 5.83279e-07, No Iterations 0
DICPCG:  Solving for vSmoothFieldz, Initial residual = 5.83279e-07, Final residual = 5.83279e-07, No Iterations 0

 timeStepFraction() = 1
[0] index = 0
[0] Us = (2.45428e-05 -0.0428234 2.45428e-05)
[0] Ur = (9.62828e-05 0.0429831 9.62828e-05)
[0] dprim = 0.0001
[0] dParcel = 0.0001
[0] rho = 10
[0] nuf = 1e-05
[0] voidfraction = 0.999986
[0] Rep = 0.429827
[0] Cd = 63.2248
[0] dragCoefficient = 1.06724e-07
[0] drag (total) = (1.02757e-11 4.58734e-09 1.02757e-11)
DICPCG:  Solving for vSmoothFieldx, Initial residual = 0.0283381, Final residual = 1.14283e-06, No Iterations 2
DICPCG:  Solving for vSmoothFieldy, Initial residual = 0.0283381, Final residual = 1.14283e-06, No Iterations 2
DICPCG:  Solving for vSmoothFieldz, Initial residual = 0.0283381, Final residual = 1.14283e-06, No Iterations 2

Solver level total Eulerian momentum exchange:
  TotalForceImp:  (-3.15271e-11 -4.20383e-09 -3.15271e-11)
  Warning, these values are based on latest Ksl and Us but prev. iteration U!

diagonal:  Solving for rho, Initial residual = 0, Final residual = 0, No Iterations 0
DILUPBiCGStab:  Solving for Ux, Initial residual = 0.273461, Final residual = 2.35845e-07, No Iterations 1
DILUPBiCGStab:  Solving for Uy, Initial residual = 0.260473, Final residual = 1.67161e-07, No Iterations 1
DILUPBiCGStab:  Solving for Uz, Initial residual = 0.273461, Final residual = 2.35845e-07, No Iterations 1
DILUPBiCGStab:  Solving for h, Initial residual = 0.0572184, Final residual = 8.72836e-07, No Iterations 1
DICPCG:  Solving for p, Initial residual = 0.310409, Final residual = 0.0013768, No Iterations 16
diagonal:  Solving for rho, Initial residual = 0, Final residual = 0, No Iterations 0
time step continuity errors : sum local = 2.08485e-07, global = 1.62436e-09, cumulative = -0.000986073
rho max/min : 10 10
DICPCG:  Solving for p, Initial residual = 0.00259816, Final residual = 8.9801e-06, No Iterations 16
diagonal:  Solving for rho, Initial residual = 0, Final residual = 0, No Iterations 0
time step continuity errors : sum local = 9.73744e-10, global = -3.88389e-11, cumulative = -0.000986073
rho max/min : 10 10
DICPCG:  Solving for p, Initial residual = 1.25403e-05, Final residual = 8.37037e-07, No Iterations 3
diagonal:  Solving for rho, Initial residual = 0, Final residual = 0, No Iterations 0
time step continuity errors : sum local = 9.07563e-11, global = 1.15893e-11, cumulative = -0.000986073
rho max/min : 10 10
DICPCG:  Solving for p, Initial residual = 8.42268e-07, Final residual = 8.42268e-07, No Iterations 0
diagonal:  Solving for rho, Initial residual = 0, Final residual = 0, No Iterations 0
time step continuity errors : sum local = 9.13234e-11, global = 1.18259e-11, cumulative = -0.000986073
rho max/min : 10 10
ExecutionTime = 0.05 s  ClockTime = 1 s

Time = 0.006

Courant Number mean: 5.7069e-06 max: 5.44479e-05

 Coupling...
Starting up LIGGGHTS
Executing command: 'run 100    '
run 100    
Setting up run at Thu Jun 11 07:22:57 2020

Memory usage per processor = 4.23805 Mbytes
    Step    Atoms         KinEng            rke         Volume 
     500        1  1.4402951e-12              0          0.001 
CFD Coupling established at step 600
     600        1  1.9384651e-12              0          0.001 
Loop time of 0.000253178 on 2 procs for 100 steps with 1 atoms, finish time Thu Jun 11 07:22:57 2020


Pair  time (%) = 2.27545e-05 (8.98753)
Neigh time (%) = 0 (0)
Comm  time (%) = 4.68985e-05 (18.5239)
Outpt time (%) = 1.16085e-05 (4.5851)
Other time (%) = 0.000171917 (67.9035)

Nlocal:    0.5 ave 1 max 0 min
Histogram: 1 0 0 0 0 0 0 0 0 1
Nghost:    0.5 ave 1 max 0 min
Histogram: 1 0 0 0 0 0 0 0 0 1
Neighs:    0 ave 0 max 0 min
Histogram: 2 0 0 0 0 0 0 0 0 0

Total # of neighbors = 0
Ave neighs/atom = 0
Neighbor list builds = 0
Dangerous builds = 0
couplingStep = 6
LIGGGHTS finished
DICPCG:  Solving for sSmoothField, Initial residual = 0.0283381, Final residual = 1.14283e-06, No Iterations 2
DICPCG:  Solving for vSmoothFieldx, Initial residual = 5.83279e-07, Final residual = 5.83279e-07, No Iterations 0
DICPCG:  Solving for vSmoothFieldy, Initial residual = 5.83279e-07, Final residual = 5.83279e-07, No Iterations 0
DICPCG:  Solving for vSmoothFieldz, Initial residual = 5.83279e-07, Final residual = 5.83279e-07, No Iterations 0

 timeStepFraction() = 1
[0] index = 0
[0] Us = (3.10845e-05 -0.0496803 3.10845e-05)
[0] Ur = (7.68761e-05 0.0497934 7.68761e-05)
[0] dprim = 0.0001
[0] dParcel = 0.0001
[0] rho = 10
[0] nuf = 1e-05
[0] voidfraction = 0.999986
[0] Rep = 0.497928
[0] Cd = 55.2396
[0] dragCoefficient = 1.08019e-07
[0] drag (total) = (8.30405e-12 5.37861e-09 8.30405e-12)
DICPCG:  Solving for vSmoothFieldx, Initial residual = 0.0283381, Final residual = 1.14283e-06, No Iterations 2
DICPCG:  Solving for vSmoothFieldy, Initial residual = 0.0283381, Final residual = 1.14283e-06, No Iterations 2
DICPCG:  Solving for vSmoothFieldz, Initial residual = 0.0283381, Final residual = 1.14283e-06, No Iterations 2

Solver level total Eulerian momentum exchange:
  TotalForceImp:  (-4.28763e-11 -4.92919e-09 -4.28763e-11)
  Warning, these values are based on latest Ksl and Us but prev. iteration U!

diagonal:  Solving for rho, Initial residual = 0, Final residual = 0, No Iterations 0
DILUPBiCGStab:  Solving for Ux, Initial residual = 0.138483, Final residual = 2.00898e-07, No Iterations 1
DILUPBiCGStab:  Solving for Uy, Initial residual = 0.125229, Final residual = 8.76392e-08, No Iterations 1
DILUPBiCGStab:  Solving for Uz, Initial residual = 0.138483, Final residual = 2.00898e-07, No Iterations 1
DILUPBiCGStab:  Solving for h, Initial residual = 0.0478419, Final residual = 7.23169e-07, No Iterations 1
DICPCG:  Solving for p, Initial residual = 0.235481, Final residual = 0.00124049, No Iterations 6
diagonal:  Solving for rho, Initial residual = 0, Final residual = 0, No Iterations 0
time step continuity errors : sum local = 1.14377e-07, global = -3.59574e-08, cumulative = -0.000986109
rho max/min : 10 10
DICPCG:  Solving for p, Initial residual = 0.0016844, Final residual = 6.35673e-06, No Iterations 16
diagonal:  Solving for rho, Initial residual = 0, Final residual = 0, No Iterations 0
time step continuity errors : sum local = 4.82632e-10, global = -2.15768e-11, cumulative = -0.000986109
rho max/min : 10 10
DICPCG:  Solving for p, Initial residual = 1.00649e-05, Final residual = 8.41064e-07, No Iterations 13
diagonal:  Solving for rho, Initial residual = 0, Final residual = 0, No Iterations 0
time step continuity errors : sum local = 6.28957e-11, global = -4.4082e-12, cumulative = -0.000986109
rho max/min : 10 10
DICPCG:  Solving for p, Initial residual = 8.48702e-07, Final residual = 8.48702e-07, No Iterations 0
diagonal:  Solving for rho, Initial residual = 0, Final residual = 0, No Iterations 0
time step continuity errors : sum local = 6.34741e-11, global = -4.34832e-12, cumulative = -0.000986109
rho max/min : 10 10
ExecutionTime = 0.06 s  ClockTime = 1 s

Time = 0.007

Courant Number mean: 5.49208e-06 max: 5.03912e-05

 Coupling...
Starting up LIGGGHTS
Executing command: 'run 100    '
run 100    
Setting up run at Thu Jun 11 07:22:57 2020

Memory usage per processor = 4.23805 Mbytes
    Step    Atoms         KinEng            rke         Volume 
     600        1  1.9384651e-12              0          0.001 
CFD Coupling established at step 700
     700        1  2.4659524e-12              0          0.001 
Loop time of 0.000252812 on 2 procs for 100 steps with 1 atoms, finish time Thu Jun 11 07:22:57 2020


Pair  time (%) = 2.40875e-05 (9.52785)
Neigh time (%) = 0 (0)
Comm  time (%) = 4.7912e-05 (18.9517)
Outpt time (%) = 1.13335e-05 (4.48298)
Other time (%) = 0.000169479 (67.0375)

Nlocal:    0.5 ave 1 max 0 min
Histogram: 1 0 0 0 0 0 0 0 0 1
Nghost:    0.5 ave 1 max 0 min
Histogram: 1 0 0 0 0 0 0 0 0 1
Neighs:    0 ave 0 max 0 min
Histogram: 2 0 0 0 0 0 0 0 0 0

Total # of neighbors = 0
Ave neighs/atom = 0
Neighbor list builds = 0
Dangerous builds = 0
couplingStep = 7
LIGGGHTS finished
DICPCG:  Solving for sSmoothField, Initial residual = 0.0283381, Final residual = 1.14283e-06, No Iterations 2
DICPCG:  Solving for vSmoothFieldx, Initial residual = 5.83279e-07, Final residual = 5.83279e-07, No Iterations 0
DICPCG:  Solving for vSmoothFieldy, Initial residual = 5.83279e-07, Final residual = 5.83279e-07, No Iterations 0
DICPCG:  Solving for vSmoothFieldz, Initial residual = 5.83279e-07, Final residual = 5.83279e-07, No Iterations 0

 timeStepFraction() = 1
[0] index = 0
[0] Us = (3.6371e-05 -0.0560334 3.6371e-05)
[0] Ur = (6.14172e-05 0.0561194 6.14172e-05)
[0] dprim = 0.0001
[0] dParcel = 0.0001
[0] rho = 10
[0] nuf = 1e-05
[0] voidfraction = 0.999986
[0] Rep = 0.561187
[0] Cd = 49.5261
[0] dragCoefficient = 1.0915e-07
[0] drag (total) = (6.70369e-12 6.12544e-09 6.70369e-12)
DICPCG:  Solving for vSmoothFieldx, Initial residual = 0.0283381, Final residual = 1.14283e-06, No Iterations 2
DICPCG:  Solving for vSmoothFieldy, Initial residual = 0.0283381, Final residual = 1.14283e-06, No Iterations 2
DICPCG:  Solving for vSmoothFieldz, Initial residual = 0.0283381, Final residual = 1.14283e-06, No Iterations 2

Solver level total Eulerian momentum exchange:
  TotalForceImp:  (-5.33788e-11 -5.62073e-09 -5.33788e-11)
  Warning, these values are based on latest Ksl and Us but prev. iteration U!

diagonal:  Solving for rho, Initial residual = 0, Final residual = 0, No Iterations 0
DILUPBiCGStab:  Solving for Ux, Initial residual = 0.0896381, Final residual = 1.14252e-07, No Iterations 1
DILUPBiCGStab:  Solving for Uy, Initial residual = 0.0825815, Final residual = 5.57863e-08, No Iterations 1
DILUPBiCGStab:  Solving for Uz, Initial residual = 0.0896381, Final residual = 1.14252e-07, No Iterations 1
DILUPBiCGStab:  Solving for h, Initial residual = 0.041106, Final residual = 6.21603e-07, No Iterations 1
DICPCG:  Solving for p, Initial residual = 0.228332, Final residual = 0.00199246, No Iterations 8
diagonal:  Solving for rho, Initial residual = 0, Final residual = 0, No Iterations 0
time step continuity errors : sum local = 1.25805e-07, global = -6.37781e-08, cumulative = -0.000986172
rho max/min : 10 10
DICPCG:  Solving for p, Initial residual = 0.00262179, Final residual = 9.91775e-06, No Iterations 14
diagonal:  Solving for rho, Initial residual = 0, Final residual = 0, No Iterations 0
time step continuity errors : sum local = 5.08343e-10, global = 5.86986e-12, cumulative = -0.000986172
rho max/min : 10 10
DICPCG:  Solving for p, Initial residual = 1.79015e-05, Final residual = 7.09142e-07, No Iterations 14
diagonal:  Solving for rho, Initial residual = 0, Final residual = 0, No Iterations 0
time step continuity errors : sum local = 3.50393e-11, global = -3.58295e-13, cumulative = -0.000986172
rho max/min : 10 10
DICPCG:  Solving for p, Initial residual = 7.12041e-07, Final residual = 7.12041e-07, No Iterations 0
diagonal:  Solving for rho, Initial residual = 0, Final residual = 0, No Iterations 0
time step continuity errors : sum local = 3.51925e-11, global = -3.89849e-13, cumulative = -0.000986172
rho max/min : 10 10
ExecutionTime = 0.06 s  ClockTime = 1 s

Time = 0.008

Courant Number mean: 5.16186e-06 max: 4.65981e-05

 Coupling...
Starting up LIGGGHTS
Executing command: 'run 100    '
run 100    
Setting up run at Thu Jun 11 07:22:57 2020

Memory usage per processor = 4.23805 Mbytes
    Step    Atoms         KinEng            rke         Volume 
     700        1  2.4659524e-12              0          0.001 
CFD Coupling established at step 800
     800        1  3.0104269e-12              0          0.001 
Loop time of 0.000251887 on 2 procs for 100 steps with 1 atoms, finish time Thu Jun 11 07:22:57 2020


Pair  time (%) = 2.21215e-05 (8.78231)
Neigh time (%) = 0 (0)
Comm  time (%) = 4.6612e-05 (18.5051)
Outpt time (%) = 1.1487e-05 (4.56038)
Other time (%) = 0.000171666 (68.1522)

Nlocal:    0.5 ave 1 max 0 min
Histogram: 1 0 0 0 0 0 0 0 0 1
Nghost:    0.5 ave 1 max 0 min
Histogram: 1 0 0 0 0 0 0 0 0 1
Neighs:    0 ave 0 max 0 min
Histogram: 2 0 0 0 0 0 0 0 0 0

Total # of neighbors = 0
Ave neighs/atom = 0
Neighbor list builds = 0
Dangerous builds = 0
couplingStep = 8
LIGGGHTS finished
DICPCG:  Solving for sSmoothField, Initial residual = 0.0283381, Final residual = 1.14283e-06, No Iterations 2
DICPCG:  Solving for vSmoothFieldx, Initial residual = 5.83279e-07, Final residual = 5.83279e-07, No Iterations 0
DICPCG:  Solving for vSmoothFieldy, Initial residual = 5.83279e-07, Final residual = 5.83279e-07, No Iterations 0
DICPCG:  Solving for vSmoothFieldz, Initial residual = 5.83279e-07, Final residual = 5.83279e-07, No Iterations 0

 timeStepFraction() = 1
[0] index = 0
[0] Us = (4.06387e-05 -0.0619112 4.06387e-05)
[0] Ur = (4.74446e-05 0.0619793 4.74446e-05)
[0] dprim = 0.0001
[0] dParcel = 0.0001
[0] rho = 10
[0] nuf = 1e-05
[0] voidfraction = 0.999986
[0] Rep = 0.619785
[0] Cd = 45.2534
[0] dragCoefficient = 1.10147e-07
[0] drag (total) = (5.22589e-12 6.82685e-09 5.22589e-12)
DICPCG:  Solving for vSmoothFieldx, Initial residual = 0.0283381, Final residual = 1.14283e-06, No Iterations 2
DICPCG:  Solving for vSmoothFieldy, Initial residual = 0.0283381, Final residual = 1.14283e-06, No Iterations 2
DICPCG:  Solving for vSmoothFieldz, Initial residual = 0.0283381, Final residual = 1.14283e-06, No Iterations 2

Solver level total Eulerian momentum exchange:
  TotalForceImp:  (-6.17528e-11 -6.26988e-09 -6.17528e-11)
  Warning, these values are based on latest Ksl and Us but prev. iteration U!

diagonal:  Solving for rho, Initial residual = 0, Final residual = 0, No Iterations 0
DILUPBiCGStab:  Solving for Ux, Initial residual = 0.0618318, Final residual = 5.69082e-08, No Iterations 1
DILUPBiCGStab:  Solving for Uy, Initial residual = 0.0557451, Final residual = 3.98292e-08, No Iterations 1
DILUPBiCGStab:  Solving for Uz, Initial residual = 0.0618318, Final residual = 5.69082e-08, No Iterations 1
DILUPBiCGStab:  Solving for h, Initial residual = 0.036025, Final residual = 5.45038e-07, No Iterations 1
DICPCG:  Solving for p, Initial residual = 0.182466, Final residual = 0.0012824, No Iterations 15
diagonal:  Solving for rho, Initial residual = 0, Final residual = 0, No Iterations 0
time step continuity errors : sum local = 5.55428e-08, global = 1.68494e-09, cumulative = -0.000986171
rho max/min : 10 10
DICPCG:  Solving for p, Initial residual = 0.00151153, Final residual = 1.40018e-05, No Iterations 11
diagonal:  Solving for rho, Initial residual = 0, Final residual = 0, No Iterations 0
time step continuity errors : sum local = 5.52398e-10, global = -2.44887e-10, cumulative = -0.000986171
rho max/min : 10 10
DICPCG:  Solving for p, Initial residual = 1.56565e-05, Final residual = 4.56585e-07, No Iterations 14
diagonal:  Solving for rho, Initial residual = 0, Final residual = 0, No Iterations 0
time step continuity errors : sum local = 1.80088e-11, global = -2.78994e-13, cumulative = -0.000986171
rho max/min : 10 10
DICPCG:  Solving for p, Initial residual = 4.7016e-07, Final residual = 4.7016e-07, No Iterations 0
diagonal:  Solving for rho, Initial residual = 0, Final residual = 0, No Iterations 0
time step continuity errors : sum local = 1.85401e-11, global = 1.32169e-12, cumulative = -0.000986171
rho max/min : 10 10
ExecutionTime = 0.07 s  ClockTime = 1 s

Time = 0.009

Courant Number mean: 5.11222e-06 max: 4.27507e-05

 Coupling...
Starting up LIGGGHTS
Executing command: 'run 100    '
run 100    
Setting up run at Thu Jun 11 07:22:57 2020

Memory usage per processor = 4.23805 Mbytes
    Step    Atoms         KinEng            rke         Volume 
     800        1  3.0104269e-12              0          0.001 
CFD Coupling established at step 900
     900        1  3.5617774e-12              0          0.001 
Loop time of 0.000249959 on 2 procs for 100 steps with 1 atoms, finish time Thu Jun 11 07:22:57 2020


Pair  time (%) = 2.2995e-05 (9.19953)
Neigh time (%) = 0 (0)
Comm  time (%) = 4.7395e-05 (18.9611)
Outpt time (%) = 1.10515e-05 (4.42133)
Other time (%) = 0.000168517 (67.418)

Nlocal:    0.5 ave 1 max 0 min
Histogram: 1 0 0 0 0 0 0 0 0 1
Nghost:    0.5 ave 1 max 0 min
Histogram: 1 0 0 0 0 0 0 0 0 1
Neighs:    0 ave 0 max 0 min
Histogram: 2 0 0 0 0 0 0 0 0 0

Total # of neighbors = 0
Ave neighs/atom = 0
Neighbor list builds = 0
Dangerous builds = 0
couplingStep = 9
LIGGGHTS finished
DICPCG:  Solving for sSmoothField, Initial residual = 0.0283381, Final residual = 1.14283e-06, No Iterations 2
DICPCG:  Solving for vSmoothFieldx, Initial residual = 5.83279e-07, Final residual = 5.83279e-07, No Iterations 0
DICPCG:  Solving for vSmoothFieldy, Initial residual = 5.83279e-07, Final residual = 5.83279e-07, No Iterations 0
DICPCG:  Solving for vSmoothFieldz, Initial residual = 5.83279e-07, Final residual = 5.83279e-07, No Iterations 0

 timeStepFraction() = 1
[0] index = 0
[0] Us = (4.39656e-05 -0.0673423 4.39656e-05)
[0] Ur = (3.63457e-05 0.0673986 3.63457e-05)
[0] dprim = 0.0001
[0] dParcel = 0.0001
[0] rho = 10
[0] nuf = 1e-05
[0] voidfraction = 0.999986
[0] Rep = 0.673977
[0] Cd = 41.949
[0] dragCoefficient = 1.11032e-07
[0] drag (total) = (4.03554e-12 7.4834e-09 4.03554e-12)
DICPCG:  Solving for vSmoothFieldx, Initial residual = 0.0283381, Final residual = 1.14283e-06, No Iterations 2
DICPCG:  Solving for vSmoothFieldy, Initial residual = 0.0283381, Final residual = 1.14283e-06, No Iterations 2
DICPCG:  Solving for vSmoothFieldz, Initial residual = 0.0283381, Final residual = 1.14283e-06, No Iterations 2

Solver level total Eulerian momentum exchange:
  TotalForceImp:  (-6.96516e-11 -6.88475e-09 -6.96516e-11)
  Warning, these values are based on latest Ksl and Us but prev. iteration U!

diagonal:  Solving for rho, Initial residual = 0, Final residual = 0, No Iterations 0
DILUPBiCGStab:  Solving for Ux, Initial residual = 0.0481535, Final residual = 5.13137e-08, No Iterations 1
DILUPBiCGStab:  Solving for Uy, Initial residual = 0.0460668, Final residual = 3.3074e-08, No Iterations 1
DILUPBiCGStab:  Solving for Uz, Initial residual = 0.0481535, Final residual = 5.13137e-08, No Iterations 1
DILUPBiCGStab:  Solving for h, Initial residual = 0.0320556, Final residual = 4.85233e-07, No Iterations 1
DICPCG:  Solving for p, Initial residual = 0.140573, Final residual = 0.000951701, No Iterations 7
diagonal:  Solving for rho, Initial residual = 0, Final residual = 0, No Iterations 0
time step continuity errors : sum local = 3.43664e-08, global = 1.92349e-08, cumulative = -0.000986152
rho max/min : 10 10
DICPCG:  Solving for p, Initial residual = 0.00112104, Final residual = 6.85686e-06, No Iterations 15
diagonal:  Solving for rho, Initial residual = 0, Final residual = 0, No Iterations 0
time step continuity errors : sum local = 2.24541e-10, global = 5.18846e-12, cumulative = -0.000986152
rho max/min : 10 10
DICPCG:  Solving for p, Initial residual = 8.52759e-06, Final residual = 8.08483e-07, No Iterations 13
diagonal:  Solving for rho, Initial residual = 0, Final residual = 0, No Iterations 0
time step continuity errors : sum local = 2.68546e-11, global = 1.45587e-12, cumulative = -0.000986152
rho max/min : 10 10
DICPCG:  Solving for p, Initial residual = 8.13179e-07, Final residual = 8.13179e-07, No Iterations 0
diagonal:  Solving for rho, Initial residual = 0, Final residual = 0, No Iterations 0
time step continuity errors : sum local = 2.70076e-11, global = 1.42727e-12, cumulative = -0.000986152
rho max/min : 10 10
ExecutionTime = 0.08 s  ClockTime = 1 s

Time = 0.01

Courant Number mean: 5.09083e-06 max: 4.53046e-05

 Coupling...
Starting up LIGGGHTS
Executing command: 'run 100    '
run 100    
Setting up run at Thu Jun 11 07:22:57 2020

Memory usage per processor = 4.23805 Mbytes
    Step    Atoms         KinEng            rke         Volume 
     900        1  3.5617774e-12              0          0.001 
CFD Coupling established at step 1000
    1000        1  4.1118203e-12              0          0.001 
Loop time of 0.000270145 on 2 procs for 100 steps with 1 atoms, finish time Thu Jun 11 07:22:57 2020


Pair  time (%) = 2.29475e-05 (8.49451)
Neigh time (%) = 0 (0)
Comm  time (%) = 4.8786e-05 (18.0592)
Outpt time (%) = 2.8063e-05 (10.3881)
Other time (%) = 0.000170348 (63.0582)

Nlocal:    0.5 ave 1 max 0 min
Histogram: 1 0 0 0 0 0 0 0 0 1
Nghost:    0.5 ave 1 max 0 min
Histogram: 1 0 0 0 0 0 0 0 0 1
Neighs:    0 ave 0 max 0 min
Histogram: 2 0 0 0 0 0 0 0 0 0

Total # of neighbors = 0
Ave neighs/atom = 0
Neighbor list builds = 0
Dangerous builds = 0
couplingStep = 10
Executing command: 'write_restart ../DEM/post/restart/liggghts.restartCFDEM'
write_restart ../DEM/post/restart/liggghts.restartCFDEM
System init for write_restart ...
LIGGGHTS finished
DICPCG:  Solving for sSmoothField, Initial residual = 0.0283381, Final residual = 1.14283e-06, No Iterations 2
DICPCG:  Solving for vSmoothFieldx, Initial residual = 5.83279e-07, Final residual = 5.83279e-07, No Iterations 0
DICPCG:  Solving for vSmoothFieldy, Initial residual = 5.83279e-07, Final residual = 5.83279e-07, No Iterations 0
DICPCG:  Solving for vSmoothFieldz, Initial residual = 5.83279e-07, Final residual = 5.83279e-07, No Iterations 0

 timeStepFraction() = 1
[0] index = 0
[0] Us = (4.65347e-05 -0.0723556 4.65347e-05)
[0] Ur = (2.72176e-05 0.0724026 2.72176e-05)
[0] dprim = 0.0001
[0] dParcel = 0.0001
[0] rho = 10
[0] nuf = 1e-05
[0] voidfraction = 0.999986
[0] Rep = 0.724016
[0] Cd = 39.3272
[0] dragCoefficient = 1.11821e-07
[0] drag (total) = (3.0435e-12 8.09613e-09 3.0435e-12)
DICPCG:  Solving for vSmoothFieldx, Initial residual = 0.0283381, Final residual = 1.14283e-06, No Iterations 2
DICPCG:  Solving for vSmoothFieldy, Initial residual = 0.0283381, Final residual = 1.14283e-06, No Iterations 2
DICPCG:  Solving for vSmoothFieldz, Initial residual = 0.0283381, Final residual = 1.14283e-06, No Iterations 2

Solver level total Eulerian momentum exchange:
  TotalForceImp:  (-7.62712e-11 -7.46566e-09 -7.62712e-11)
  Warning, these values are based on latest Ksl and Us but prev. iteration U!

diagonal:  Solving for rho, Initial residual = 0, Final residual = 0, No Iterations 0
DILUPBiCGStab:  Solving for Ux, Initial residual = 0.0422321, Final residual = 4.76803e-08, No Iterations 1
DILUPBiCGStab:  Solving for Uy, Initial residual = 0.0389793, Final residual = 2.91064e-08, No Iterations 1
DILUPBiCGStab:  Solving for Uz, Initial residual = 0.0422321, Final residual = 4.76803e-08, No Iterations 1
DILUPBiCGStab:  Solving for h, Initial residual = 0.0288692, Final residual = 4.37194e-07, No Iterations 1
DICPCG:  Solving for p, Initial residual = 0.109471, Final residual = 0.000547115, No Iterations 15
diagonal:  Solving for rho, Initial residual = 0, Final residual = 0, No Iterations 0
time step continuity errors : sum local = 1.75619e-08, global = -6.47469e-11, cumulative = -0.000986152
rho max/min : 10 10
DICPCG:  Solving for p, Initial residual = 0.000606601, Final residual = 5.4309e-06, No Iterations 15
diagonal:  Solving for rho, Initial residual = 0, Final residual = 0, No Iterations 0
time step continuity errors : sum local = 1.72891e-10, global = 4.72936e-12, cumulative = -0.000986152
rho max/min : 10 10
DICPCG:  Solving for p, Initial residual = 6.07392e-06, Final residual = 7.22557e-07, No Iterations 2
diagonal:  Solving for rho, Initial residual = 0, Final residual = 0, No Iterations 0
time step continuity errors : sum local = 2.29995e-11, global = -1.5699e-12, cumulative = -0.000986152
rho max/min : 10 10
DICPCG:  Solving for p, Initial residual = 7.19963e-07, Final residual = 7.19963e-07, No Iterations 0
diagonal:  Solving for rho, Initial residual = 0, Final residual = 0, No Iterations 0
time step continuity errors : sum local = 2.29168e-11, global = -1.5876e-12, cumulative = -0.000986152
rho max/min : 10 10
ExecutionTime = 0.08 s  ClockTime = 1 s

Time = 0.011

Courant Number mean: 5.14307e-06 max: 5.19087e-05

 Coupling...
Starting up LIGGGHTS
Executing command: 'run 100    '
run 100    
Setting up run at Thu Jun 11 07:22:57 2020

Memory usage per processor = 4.23811 Mbytes
    Step    Atoms         KinEng            rke         Volume 
    1000        1  4.1118203e-12              0          0.001 
CFD Coupling established at step 1100
    1100        1  4.6540549e-12              0          0.001 
Loop time of 0.000256356 on 2 procs for 100 steps with 1 atoms, finish time Thu Jun 11 07:22:57 2020


Pair  time (%) = 2.4161e-05 (9.42478)
Neigh time (%) = 0 (0)
Comm  time (%) = 4.71925e-05 (18.409)
Outpt time (%) = 1.11925e-05 (4.366)
Other time (%) = 0.00017381 (67.8002)

Nlocal:    0.5 ave 1 max 0 min
Histogram: 1 0 0 0 0 0 0 0 0 1
Nghost:    0.5 ave 1 max 0 min
Histogram: 1 0 0 0 0 0 0 0 0 1
Neighs:    0 ave 0 max 0 min
Histogram: 2 0 0 0 0 0 0 0 0 0

Total # of neighbors = 0
Ave neighs/atom = 0
Neighbor list builds = 0
Dangerous builds = 0
couplingStep = 11
Executing command: 'write_restart ../DEM/post/restart/liggghts.restartCFDEM'
write_restart ../DEM/post/restart/liggghts.restartCFDEM
System init for write_restart ...
LIGGGHTS finished
DICPCG:  Solving for sSmoothField, Initial residual = 0.0283381, Final residual = 1.14283e-06, No Iterations 2
DICPCG:  Solving for vSmoothFieldx, Initial residual = 5.83279e-07, Final residual = 5.83279e-07, No Iterations 0
DICPCG:  Solving for vSmoothFieldy, Initial residual = 5.83279e-07, Final residual = 5.83279e-07, No Iterations 0
DICPCG:  Solving for vSmoothFieldz, Initial residual = 5.83279e-07, Final residual = 5.83279e-07, No Iterations 0

 timeStepFraction() = 1
[0] index = 0
[0] Us = (4.84723e-05 -0.0769787 4.84723e-05)
[0] Ur = (1.87898e-05 0.0770195 1.87898e-05)
[0] dprim = 0.0001
[0] dParcel = 0.0001
[0] rho = 10
[0] nuf = 1e-05
[0] voidfraction = 0.999986
[0] Rep = 0.770184
[0] Cd = 37.2033
[0] dragCoefficient = 1.12527e-07
[0] drag (total) = (2.11437e-12 8.66679e-09 2.11437e-12)
DICPCG:  Solving for vSmoothFieldx, Initial residual = 0.0283381, Final residual = 1.14283e-06, No Iterations 2
DICPCG:  Solving for vSmoothFieldy, Initial residual = 0.0283381, Final residual = 1.14283e-06, No Iterations 2
DICPCG:  Solving for vSmoothFieldz, Initial residual = 0.0283381, Final residual = 1.14283e-06, No Iterations 2

Solver level total Eulerian momentum exchange:
  TotalForceImp:  (-7.42651e-11 -8.02042e-09 -7.42651e-11)
  Warning, these values are based on latest Ksl and Us but prev. iteration U!

diagonal:  Solving for rho, Initial residual = 0, Final residual = 0, No Iterations 0
DILUPBiCGStab:  Solving for Ux, Initial residual = 0.0433332, Final residual = 5.07306e-08, No Iterations 1
DILUPBiCGStab:  Solving for Uy, Initial residual = 0.0385426, Final residual = 2.96411e-08, No Iterations 1
DILUPBiCGStab:  Solving for Uz, Initial residual = 0.0433332, Final residual = 5.07306e-08, No Iterations 1
DILUPBiCGStab:  Solving for h, Initial residual = 0.0260122, Final residual = 3.94098e-07, No Iterations 1
DICPCG:  Solving for p, Initial residual = 0.112631, Final residual = 0.00104848, No Iterations 15
diagonal:  Solving for rho, Initial residual = 0, Final residual = 0, No Iterations 0
time step continuity errors : sum local = 3.39639e-08, global = 3.1773e-10, cumulative = -0.000986151
rho max/min : 10 10
DICPCG:  Solving for p, Initial residual = 0.00102025, Final residual = 8.34176e-06, No Iterations 9
diagonal:  Solving for rho, Initial residual = 0, Final residual = 0, No Iterations 0
time step continuity errors : sum local = 2.83459e-10, global = -8.80559e-11, cumulative = -0.000986151
rho max/min : 10 10
DICPCG:  Solving for p, Initial residual = 8.73565e-06, Final residual = 7.72223e-07, No Iterations 13
diagonal:  Solving for rho, Initial residual = 0, Final residual = 0, No Iterations 0
time step continuity errors : sum local = 2.62468e-11, global = -1.49152e-13, cumulative = -0.000986151
rho max/min : 10 10
DICPCG:  Solving for p, Initial residual = 7.71142e-07, Final residual = 7.71142e-07, No Iterations 0
diagonal:  Solving for rho, Initial residual = 0, Final residual = 0, No Iterations 0
time step continuity errors : sum local = 2.62087e-11, global = 3.6541e-13, cumulative = -0.000986151
rho max/min : 10 10
ExecutionTime = 0.09 s  ClockTime = 1 s

Time = 0.012

Courant Number mean: 5.41033e-06 max: 6.58814e-05

 Coupling...
Starting up LIGGGHTS
Executing command: 'run 100    '
run 100    
Setting up run at Thu Jun 11 07:22:57 2020

Memory usage per processor = 4.23811 Mbytes
    Step    Atoms         KinEng            rke         Volume 
    1100        1  4.6540549e-12              0          0.001 
CFD Coupling established at step 1200
    1200        1   5.183399e-12              0          0.001 
Loop time of 0.00024623 on 2 procs for 100 steps with 1 atoms, finish time Thu Jun 11 07:22:57 2020


Pair  time (%) = 2.40015e-05 (9.74761)
Neigh time (%) = 0 (0)
Comm  time (%) = 4.5654e-05 (18.5412)
Outpt time (%) = 1.1034e-05 (4.48119)
Other time (%) = 0.00016554 (67.23)

Nlocal:    0.5 ave 1 max 0 min
Histogram: 1 0 0 0 0 0 0 0 0 1
Nghost:    0.5 ave 1 max 0 min
Histogram: 1 0 0 0 0 0 0 0 0 1
Neighs:    0 ave 0 max 0 min
Histogram: 2 0 0 0 0 0 0 0 0 0

Total # of neighbors = 0
Ave neighs/atom = 0
Neighbor list builds = 0
Dangerous builds = 0
couplingStep = 12
Executing command: 'write_restart ../DEM/post/restart/liggghts.restartCFDEM'
write_restart ../DEM/post/restart/liggghts.restartCFDEM
System init for write_restart ...
LIGGGHTS finished
DICPCG:  Solving for sSmoothField, Initial residual = 0.0283381, Final residual = 1.14283e-06, No Iterations 2
DICPCG:  Solving for vSmoothFieldx, Initial residual = 5.83279e-07, Final residual = 5.83279e-07, No Iterations 0
DICPCG:  Solving for vSmoothFieldy, Initial residual = 5.83279e-07, Final residual = 5.83279e-07, No Iterations 0
DICPCG:  Solving for vSmoothFieldz, Initial residual = 5.83279e-07, Final residual = 5.83279e-07, No Iterations 0

 timeStepFraction() = 1
[0] index = 0
[0] Us = (4.98183e-05 -0.0812386 4.98183e-05)
[0] Ur = (1.11633e-05 0.0812787 1.11633e-05)
[0] dprim = 0.0001
[0] dParcel = 0.0001
[0] rho = 10
[0] nuf = 1e-05
[0] voidfraction = 0.999986
[0] Rep = 0.812776
[0] Cd = 35.4527
[0] dragCoefficient = 1.13162e-07
[0] drag (total) = (1.26326e-12 9.19768e-09 1.26326e-12)
DICPCG:  Solving for vSmoothFieldx, Initial residual = 0.0283381, Final residual = 1.14283e-06, No Iterations 2
DICPCG:  Solving for vSmoothFieldy, Initial residual = 0.0283381, Final residual = 1.14283e-06, No Iterations 2
DICPCG:  Solving for vSmoothFieldz, Initial residual = 0.0283381, Final residual = 1.14283e-06, No Iterations 2

Solver level total Eulerian momentum exchange:
  TotalForceImp:  (-4.26319e-11 -8.5598e-09 -4.26319e-11)
  Warning, these values are based on latest Ksl and Us but prev. iteration U!

diagonal:  Solving for rho, Initial residual = 0, Final residual = 0, No Iterations 0
DILUPBiCGStab:  Solving for Ux, Initial residual = 0.0503747, Final residual = 5.68256e-08, No Iterations 1
DILUPBiCGStab:  Solving for Uy, Initial residual = 0.0406772, Final residual = 3.11595e-08, No Iterations 1
DILUPBiCGStab:  Solving for Uz, Initial residual = 0.0503747, Final residual = 5.68256e-08, No Iterations 1
DILUPBiCGStab:  Solving for h, Initial residual = 0.0236365, Final residual = 3.58266e-07, No Iterations 1
DICPCG:  Solving for p, Initial residual = 0.274031, Final residual = 0.00173939, No Iterations 16
diagonal:  Solving for rho, Initial residual = 0, Final residual = 0, No Iterations 0
time step continuity errors : sum local = 7.55551e-08, global = -1.97747e-09, cumulative = -0.000986153
rho max/min : 10 10
DICPCG:  Solving for p, Initial residual = 0.00149187, Final residual = 6.77411e-06, No Iterations 16
diagonal:  Solving for rho, Initial residual = 0, Final residual = 0, No Iterations 0
time step continuity errors : sum local = 4.23461e-10, global = -2.22395e-11, cumulative = -0.000986153
rho max/min : 10 10
DICPCG:  Solving for p, Initial residual = 8.06949e-06, Final residual = 3.54142e-07, No Iterations 3
diagonal:  Solving for rho, Initial residual = 0, Final residual = 0, No Iterations 0
time step continuity errors : sum local = 2.2115e-11, global = -1.00222e-12, cumulative = -0.000986153
rho max/min : 10 10
DICPCG:  Solving for p, Initial residual = 3.61091e-07, Final residual = 3.61091e-07, No Iterations 0
diagonal:  Solving for rho, Initial residual = 0, Final residual = 0, No Iterations 0
time step continuity errors : sum local = 2.25489e-11, global = -9.13404e-13, cumulative = -0.000986153
rho max/min : 10 10
ExecutionTime = 0.1 s  ClockTime = 1 s

Time = 0.013

Courant Number mean: 6.97106e-06 max: 0.000156584

 Coupling...
Starting up LIGGGHTS
Executing command: 'run 100    '
run 100    
Setting up run at Thu Jun 11 07:22:57 2020

Memory usage per processor = 4.23811 Mbytes
    Step    Atoms         KinEng            rke         Volume 
    1200        1   5.183399e-12              0          0.001 
CFD Coupling established at step 1300
    1300        1  5.6959465e-12              0          0.001 
Loop time of 0.000247195 on 2 procs for 100 steps with 1 atoms, finish time Thu Jun 11 07:22:57 2020


Pair  time (%) = 2.29945e-05 (9.30215)
Neigh time (%) = 0 (0)
Comm  time (%) = 4.6049e-05 (18.6286)
Outpt time (%) = 1.10415e-05 (4.46671)
Other time (%) = 0.00016711 (67.6026)

Nlocal:    0.5 ave 1 max 0 min
Histogram: 1 0 0 0 0 0 0 0 0 1
Nghost:    0.5 ave 1 max 0 min
Histogram: 1 0 0 0 0 0 0 0 0 1
Neighs:    0 ave 0 max 0 min
Histogram: 2 0 0 0 0 0 0 0 0 0

Total # of neighbors = 0
Ave neighs/atom = 0
Neighbor list builds = 0
Dangerous builds = 0
couplingStep = 13
Executing command: 'write_restart ../DEM/post/restart/liggghts.restartCFDEM'
write_restart ../DEM/post/restart/liggghts.restartCFDEM
System init for write_restart ...
LIGGGHTS finished
DICPCG:  Solving for sSmoothField, Initial residual = 0.0283381, Final residual = 1.14283e-06, No Iterations 2
DICPCG:  Solving for vSmoothFieldx, Initial residual = 5.83279e-07, Final residual = 5.83279e-07, No Iterations 0
DICPCG:  Solving for vSmoothFieldy, Initial residual = 5.83279e-07, Final residual = 5.83279e-07, No Iterations 0
DICPCG:  Solving for vSmoothFieldz, Initial residual = 5.83279e-07, Final residual = 5.83279e-07, No Iterations 0

 timeStepFraction() = 1
[0] index = 0
[0] Us = (5.06225e-05 -0.0851604 5.06225e-05)
[0] Ur = (2.75964e-06 0.0852396 2.75963e-06)
[0] dprim = 0.0001
[0] dParcel = 0.0001
[0] rho = 10
[0] nuf = 1e-05
[0] voidfraction = 0.999986
[0] Rep = 0.852384
[0] Cd = 33.9778
[0] dragCoefficient = 1.1374e-07
[0] drag (total) = (3.1388e-13 9.69511e-09 3.1388e-13)
DICPCG:  Solving for vSmoothFieldx, Initial residual = 0.0283381, Final residual = 1.14283e-06, No Iterations 2
DICPCG:  Solving for vSmoothFieldy, Initial residual = 0.0283381, Final residual = 1.14283e-06, No Iterations 2
DICPCG:  Solving for vSmoothFieldz, Initial residual = 0.0283381, Final residual = 1.14283e-06, No Iterations 2

Solver level total Eulerian momentum exchange:
  TotalForceImp:  (-1.90392e-11 -9.20797e-09 -1.90392e-11)
  Warning, these values are based on latest Ksl and Us but prev. iteration U!

diagonal:  Solving for rho, Initial residual = 0, Final residual = 0, No Iterations 0
DILUPBiCGStab:  Solving for Ux, Initial residual = 0.104019, Final residual = 1.04121e-07, No Iterations 1
DILUPBiCGStab:  Solving for Uy, Initial residual = 0.0875176, Final residual = 9.89685e-08, No Iterations 1
DILUPBiCGStab:  Solving for Uz, Initial residual = 0.104019, Final residual = 1.04121e-07, No Iterations 1
DILUPBiCGStab:  Solving for h, Initial residual = 0.0216547, Final residual = 3.2848e-07, No Iterations 1
DICPCG:  Solving for p, Initial residual = 0.414894, Final residual = 0.00325327, No Iterations 16
diagonal:  Solving for rho, Initial residual = 0, Final residual = 0, No Iterations 0
time step continuity errors : sum local = 1.73443e-07, global = 3.57954e-09, cumulative = -0.00098615
rho max/min : 10 10
DICPCG:  Solving for p, Initial residual = 0.00506923, Final residual = 2.29004e-05, No Iterations 16
diagonal:  Solving for rho, Initial residual = 0, Final residual = 0, No Iterations 0
time step continuity errors : sum local = 9.62786e-10, global = 3.79931e-11, cumulative = -0.00098615
rho max/min : 10 10
DICPCG:  Solving for p, Initial residual = 2.9853e-05, Final residual = 5.78885e-07, No Iterations 4
diagonal:  Solving for rho, Initial residual = 0, Final residual = 0, No Iterations 0
time step continuity errors : sum local = 2.41815e-11, global = 1.15222e-12, cumulative = -0.00098615
rho max/min : 10 10
DICPCG:  Solving for p, Initial residual = 5.90705e-07, Final residual = 5.90705e-07, No Iterations 0
diagonal:  Solving for rho, Initial residual = 0, Final residual = 0, No Iterations 0
time step continuity errors : sum local = 2.46754e-11, global = 1.00617e-12, cumulative = -0.00098615
rho max/min : 10 10
ExecutionTime = 0.1 s  ClockTime = 1 s

Time = 0.014

Courant Number mean: 5.45605e-06 max: 6.62993e-05

 Coupling...
Starting up LIGGGHTS
Executing command: 'run 100    '
run 100    
Setting up run at Thu Jun 11 07:22:57 2020

Memory usage per processor = 4.23811 Mbytes
    Step    Atoms         KinEng            rke         Volume 
    1300        1  5.6959465e-12              0          0.001 
CFD Coupling established at step 1400
    1400        1  6.1884213e-12              0          0.001 
Loop time of 0.000249242 on 2 procs for 100 steps with 1 atoms, finish time Thu Jun 11 07:22:57 2020


Pair  time (%) = 2.19225e-05 (8.79567)
Neigh time (%) = 0 (0)
Comm  time (%) = 4.63185e-05 (18.5837)
Outpt time (%) = 1.07445e-05 (4.31087)
Other time (%) = 0.000170256 (68.3097)

Nlocal:    0.5 ave 1 max 0 min
Histogram: 1 0 0 0 0 0 0 0 0 1
Nghost:    0.5 ave 1 max 0 min
Histogram: 1 0 0 0 0 0 0 0 0 1
Neighs:    0 ave 0 max 0 min
Histogram: 2 0 0 0 0 0 0 0 0 0

Total # of neighbors = 0
Ave neighs/atom = 0
Neighbor list builds = 0
Dangerous builds = 0
couplingStep = 14
Executing command: 'write_restart ../DEM/post/restart/liggghts.restartCFDEM'
write_restart ../DEM/post/restart/liggghts.restartCFDEM
System init for write_restart ...
LIGGGHTS finished
DICPCG:  Solving for sSmoothField, Initial residual = 0.0283381, Final residual = 1.14283e-06, No Iterations 2
DICPCG:  Solving for vSmoothFieldx, Initial residual = 5.83279e-07, Final residual = 5.83279e-07, No Iterations 0
DICPCG:  Solving for vSmoothFieldy, Initial residual = 5.83279e-07, Final residual = 5.83279e-07, No Iterations 0
DICPCG:  Solving for vSmoothFieldz, Initial residual = 5.83279e-07, Final residual = 5.83279e-07, No Iterations 0

 timeStepFraction() = 1
[0] index = 0
[0] Us = (5.08224e-05 -0.0887656 5.08224e-05)
[0] Ur = (-4.88691e-06 0.0887972 -4.88691e-06)
[0] dprim = 0.0001
[0] dParcel = 0.0001
[0] rho = 10
[0] nuf = 1e-05
[0] voidfraction = 0.999986
[0] Rep = 0.88796
[0] Cd = 32.7622
[0] dragCoefficient = 1.14248e-07
[0] drag (total) = (-5.58319e-13 1.01449e-08 -5.58319e-13)
DICPCG:  Solving for vSmoothFieldx, Initial residual = 0.0283381, Final residual = 1.14283e-06, No Iterations 2
DICPCG:  Solving for vSmoothFieldy, Initial residual = 0.0283381, Final residual = 1.14283e-06, No Iterations 2
DICPCG:  Solving for vSmoothFieldz, Initial residual = 0.0283381, Final residual = 1.14283e-06, No Iterations 2

Solver level total Eulerian momentum exchange:
  TotalForceImp:  (-1.22691e-12 -9.58081e-09 -1.22691e-12)
  Warning, these values are based on latest Ksl and Us but prev. iteration U!

diagonal:  Solving for rho, Initial residual = 0, Final residual = 0, No Iterations 0
DILUPBiCGStab:  Solving for Ux, Initial residual = 0.0594387, Final residual = 5.70233e-08, No Iterations 1
DILUPBiCGStab:  Solving for Uy, Initial residual = 0.0962162, Final residual = 1.01306e-07, No Iterations 1
DILUPBiCGStab:  Solving for Uz, Initial residual = 0.0594387, Final residual = 5.70233e-08, No Iterations 1
DILUPBiCGStab:  Solving for h, Initial residual = 0.0199768, Final residual = 3.02738e-07, No Iterations 1
DICPCG:  Solving for p, Initial residual = 0.342245, Final residual = 0.00255084, No Iterations 16
diagonal:  Solving for rho, Initial residual = 0, Final residual = 0, No Iterations 0
time step continuity errors : sum local = 1.03587e-07, global = -1.17119e-09, cumulative = -0.000986151
rho max/min : 10 10
DICPCG:  Solving for p, Initial residual = 0.00353312, Final residual = 1.64932e-05, No Iterations 16
diagonal:  Solving for rho, Initial residual = 0, Final residual = 0, No Iterations 0
time step continuity errors : sum local = 6.01568e-10, global = -8.78954e-12, cumulative = -0.000986151
rho max/min : 10 10
DICPCG:  Solving for p, Initial residual = 2.26935e-05, Final residual = 4.36802e-07, No Iterations 4
diagonal:  Solving for rho, Initial residual = 0, Final residual = 0, No Iterations 0
time step continuity errors : sum local = 1.58546e-11, global = -2.47874e-13, cumulative = -0.000986151
rho max/min : 10 10
DICPCG:  Solving for p, Initial residual = 4.41617e-07, Final residual = 4.41617e-07, No Iterations 0
diagonal:  Solving for rho, Initial residual = 0, Final residual = 0, No Iterations 0
time step continuity errors : sum local = 1.60294e-11, global = -2.22511e-13, cumulative = -0.000986151
rho max/min : 10 10
ExecutionTime = 0.11 s  ClockTime = 1 s

Time = 0.015

Courant Number mean: 6.25341e-06 max: 0.000106088

 Coupling...
Starting up LIGGGHTS
Executing command: 'run 100    '
run 100    
Setting up run at Thu Jun 11 07:22:57 2020

Memory usage per processor = 4.23811 Mbytes
    Step    Atoms         KinEng            rke         Volume 
    1400        1  6.1884213e-12              0          0.001 
CFD Coupling established at step 1500
    1500        1  6.6598297e-12              0          0.001 
Loop time of 0.00024912 on 2 procs for 100 steps with 1 atoms, finish time Thu Jun 11 07:22:57 2020


Pair  time (%) = 2.31355e-05 (9.28691)
Neigh time (%) = 0 (0)
Comm  time (%) = 4.6008e-05 (18.4682)
Outpt time (%) = 1.08935e-05 (4.3728)
Other time (%) = 0.000169082 (67.872)

Nlocal:    0.5 ave 1 max 0 min
Histogram: 1 0 0 0 0 0 0 0 0 1
Nghost:    0.5 ave 1 max 0 min
Histogram: 1 0 0 0 0 0 0 0 0 1
Neighs:    0 ave 0 max 0 min
Histogram: 2 0 0 0 0 0 0 0 0 0

Total # of neighbors = 0
Ave neighs/atom = 0
Neighbor list builds = 0
Dangerous builds = 0
couplingStep = 15
Executing command: 'write_restart ../DEM/post/restart/liggghts.restartCFDEM'
write_restart ../DEM/post/restart/liggghts.restartCFDEM
System init for write_restart ...
LIGGGHTS finished
DICPCG:  Solving for sSmoothField, Initial residual = 0.0283381, Final residual = 1.14283e-06, No Iterations 2
DICPCG:  Solving for vSmoothFieldx, Initial residual = 5.83279e-07, Final residual = 5.83279e-07, No Iterations 0
DICPCG:  Solving for vSmoothFieldy, Initial residual = 5.83279e-07, Final residual = 5.83279e-07, No Iterations 0
DICPCG:  Solving for vSmoothFieldz, Initial residual = 5.83279e-07, Final residual = 5.83279e-07, No Iterations 0

 timeStepFraction() = 1
[0] index = 0
[0] Us = (5.04669e-05 -0.0920845 5.04669e-05)
[0] Ur = (-6.1023e-06 0.0921198 -6.1023e-06)
[0] dprim = 0.0001
[0] dParcel = 0.0001
[0] rho = 10
[0] nuf = 1e-05
[0] voidfraction = 0.999986
[0] Rep = 0.921185
[0] Cd = 31.7096
[0] dragCoefficient = 1.14715e-07
[0] drag (total) = (-7.00023e-13 1.05675e-08 -7.00023e-13)
DICPCG:  Solving for vSmoothFieldx, Initial residual = 0.0283381, Final residual = 1.14283e-06, No Iterations 2
DICPCG:  Solving for vSmoothFieldy, Initial residual = 0.0283381, Final residual = 1.14283e-06, No Iterations 2
DICPCG:  Solving for vSmoothFieldz, Initial residual = 0.0283381, Final residual = 1.14283e-06, No Iterations 2

Solver level total Eulerian momentum exchange:
  TotalForceImp:  (-5.73617e-12 -1.00395e-08 -5.73617e-12)
  Warning, these values are based on latest Ksl and Us but prev. iteration U!

diagonal:  Solving for rho, Initial residual = 0, Final residual = 0, No Iterations 0
DILUPBiCGStab:  Solving for Ux, Initial residual = 0.0503557, Final residual = 4.62027e-08, No Iterations 1
DILUPBiCGStab:  Solving for Uy, Initial residual = 0.05021, Final residual = 4.2893e-08, No Iterations 1
DILUPBiCGStab:  Solving for Uz, Initial residual = 0.0503557, Final residual = 4.62027e-08, No Iterations 1
DILUPBiCGStab:  Solving for h, Initial residual = 0.0185371, Final residual = 2.81538e-07, No Iterations 1
DICPCG:  Solving for p, Initial residual = 0.309199, Final residual = 0.00243286, No Iterations 16
diagonal:  Solving for rho, Initial residual = 0, Final residual = 0, No Iterations 0
time step continuity errors : sum local = 7.54138e-08, global = 1.75198e-09, cumulative = -0.000986149
rho max/min : 10 10
DICPCG:  Solving for p, Initial residual = 0.00464911, Final residual = 2.00491e-05, No Iterations 16
diagonal:  Solving for rho, Initial residual = 0, Final residual = 0, No Iterations 0
time step continuity errors : sum local = 3.91195e-10, global = 1.234e-11, cumulative = -0.000986149
rho max/min : 10 10
DICPCG:  Solving for p, Initial residual = 2.75528e-05, Final residual = 6.4552e-07, No Iterations 4
diagonal:  Solving for rho, Initial residual = 0, Final residual = 0, No Iterations 0
time step continuity errors : sum local = 1.25256e-11, global = 2.74106e-13, cumulative = -0.000986149
rho max/min : 10 10
DICPCG:  Solving for p, Initial residual = 6.56006e-07, Final residual = 6.56006e-07, No Iterations 0
diagonal:  Solving for rho, Initial residual = 0, Final residual = 0, No Iterations 0
time step continuity errors : sum local = 1.27291e-11, global = 2.24201e-13, cumulative = -0.000986149
rho max/min : 10 10
ExecutionTime = 0.11 s  ClockTime = 1 s

Time = 0.016

Courant Number mean: 5.85121e-06 max: 7.89082e-05

 Coupling...
Starting up LIGGGHTS
Executing command: 'run 100    '
run 100    
Setting up run at Thu Jun 11 07:22:57 2020

Memory usage per processor = 4.23811 Mbytes
    Step    Atoms         KinEng            rke         Volume 
    1500        1  6.6598297e-12              0          0.001 
CFD Coupling established at step 1600
    1600        1  7.1082809e-12              0          0.001 
Loop time of 0.000247089 on 2 procs for 100 steps with 1 atoms, finish time Thu Jun 11 07:22:57 2020


Pair  time (%) = 2.3046e-05 (9.32698)
Neigh time (%) = 0 (0)
Comm  time (%) = 4.4554e-05 (18.0315)
Outpt time (%) = 1.07955e-05 (4.36906)
Other time (%) = 0.000168694 (68.2724)

Nlocal:    0.5 ave 1 max 0 min
Histogram: 1 0 0 0 0 0 0 0 0 1
Nghost:    0.5 ave 1 max 0 min
Histogram: 1 0 0 0 0 0 0 0 0 1
Neighs:    0 ave 0 max 0 min
Histogram: 2 0 0 0 0 0 0 0 0 0

Total # of neighbors = 0
Ave neighs/atom = 0
Neighbor list builds = 0
Dangerous builds = 0
couplingStep = 16
Executing command: 'write_restart ../DEM/post/restart/liggghts.restartCFDEM'
write_restart ../DEM/post/restart/liggghts.restartCFDEM
System init for write_restart ...
LIGGGHTS finished
DICPCG:  Solving for sSmoothField, Initial residual = 0.0283381, Final residual = 1.14283e-06, No Iterations 2
DICPCG:  Solving for vSmoothFieldx, Initial residual = 5.83279e-07, Final residual = 5.83279e-07, No Iterations 0
DICPCG:  Solving for vSmoothFieldy, Initial residual = 5.83279e-07, Final residual = 5.83279e-07, No Iterations 0
DICPCG:  Solving for vSmoothFieldz, Initial residual = 5.83279e-07, Final residual = 5.83279e-07, No Iterations 0

 timeStepFraction() = 1
[0] index = 0
[0] Us = (5.00213e-05 -0.0951343 5.00213e-05)
[0] Ur = (-7.5834e-06 0.0951378 -7.5834e-06)
[0] dprim = 0.0001
[0] dParcel = 0.0001
[0] rho = 10
[0] nuf = 1e-05
[0] voidfraction = 0.999986
[0] Rep = 0.951365
[0] Cd = 30.8154
[0] dragCoefficient = 1.15132e-07
[0] drag (total) = (-8.73092e-13 1.09534e-08 -8.73092e-13)
DICPCG:  Solving for vSmoothFieldx, Initial residual = 0.0283381, Final residual = 1.14283e-06, No Iterations 2
DICPCG:  Solving for vSmoothFieldy, Initial residual = 0.0283381, Final residual = 1.14283e-06, No Iterations 2
DICPCG:  Solving for vSmoothFieldz, Initial residual = 0.0283381, Final residual = 1.14283e-06, No Iterations 2

Solver level total Eulerian momentum exchange:
  TotalForceImp:  (-9.33196e-12 -1.03987e-08 -9.33196e-12)
  Warning, these values are based on latest Ksl and Us but prev. iteration U!

diagonal:  Solving for rho, Initial residual = 0, Final residual = 0, No Iterations 0
DILUPBiCGStab:  Solving for Ux, Initial residual = 0.0250498, Final residual = 2.3307e-08, No Iterations 1
DILUPBiCGStab:  Solving for Uy, Initial residual = 0.0384011, Final residual = 4.24768e-08, No Iterations 1
DILUPBiCGStab:  Solving for Uz, Initial residual = 0.0250498, Final residual = 2.3307e-08, No Iterations 1
DILUPBiCGStab:  Solving for h, Initial residual = 0.0172891, Final residual = 2.6236e-07, No Iterations 1
DICPCG:  Solving for p, Initial residual = 0.30126, Final residual = 0.00201761, No Iterations 16
diagonal:  Solving for rho, Initial residual = 0, Final residual = 0, No Iterations 0
time step continuity errors : sum local = 4.04623e-08, global = -7.09329e-10, cumulative = -0.00098615
rho max/min : 10 10
DICPCG:  Solving for p, Initial residual = 0.00217591, Final residual = 1.07141e-05, No Iterations 16
diagonal:  Solving for rho, Initial residual = 0, Final residual = 0, No Iterations 0
time step continuity errors : sum local = 2.4838e-10, global = -4.41117e-12, cumulative = -0.00098615
rho max/min : 10 10
DICPCG:  Solving for p, Initial residual = 1.38873e-05, Final residual = 8.54767e-07, No Iterations 3
diagonal:  Solving for rho, Initial residual = 0, Final residual = 0, No Iterations 0
time step continuity errors : sum local = 1.97537e-11, global = -5.07247e-13, cumulative = -0.00098615
rho max/min : 10 10
DICPCG:  Solving for p, Initial residual = 8.7673e-07, Final residual = 8.7673e-07, No Iterations 0
diagonal:  Solving for rho, Initial residual = 0, Final residual = 0, No Iterations 0
time step continuity errors : sum local = 2.02613e-11, global = -4.9326e-13, cumulative = -0.00098615
rho max/min : 10 10
ExecutionTime = 0.12 s  ClockTime = 1 s

Time = 0.017

Courant Number mean: 6.23928e-06 max: 9.34213e-05

 Coupling...
Starting up LIGGGHTS
Executing command: 'run 100    '
run 100    
Setting up run at Thu Jun 11 07:22:57 2020

Memory usage per processor = 4.23811 Mbytes
    Step    Atoms         KinEng            rke         Volume 
    1600        1  7.1082809e-12              0          0.001 
CFD Coupling established at step 1700
    1700        1  7.5334986e-12              0          0.001 
Loop time of 0.000244947 on 2 procs for 100 steps with 1 atoms, finish time Thu Jun 11 07:22:57 2020


Pair  time (%) = 2.20325e-05 (8.99482)
Neigh time (%) = 0 (0)
Comm  time (%) = 4.5119e-05 (18.4199)
Outpt time (%) = 1.05345e-05 (4.30074)
Other time (%) = 0.00016726 (68.2845)

Nlocal:    0.5 ave 1 max 0 min
Histogram: 1 0 0 0 0 0 0 0 0 1
Nghost:    0.5 ave 1 max 0 min
Histogram: 1 0 0 0 0 0 0 0 0 1
Neighs:    0 ave 0 max 0 min
Histogram: 2 0 0 0 0 0 0 0 0 0

Total # of neighbors = 0
Ave neighs/atom = 0
Neighbor list builds = 0
Dangerous builds = 0
couplingStep = 17
Executing command: 'write_restart ../DEM/post/restart/liggghts.restartCFDEM'
write_restart ../DEM/post/restart/liggghts.restartCFDEM
System init for write_restart ...
LIGGGHTS finished
DICPCG:  Solving for sSmoothField, Initial residual = 0.0283381, Final residual = 1.14283e-06, No Iterations 2
DICPCG:  Solving for vSmoothFieldx, Initial residual = 5.83279e-07, Final residual = 5.83279e-07, No Iterations 0
DICPCG:  Solving for vSmoothFieldy, Initial residual = 5.83279e-07, Final residual = 5.83279e-07, No Iterations 0
DICPCG:  Solving for vSmoothFieldz, Initial residual = 5.83279e-07, Final residual = 5.83279e-07, No Iterations 0

 timeStepFraction() = 1
[0] index = 0
[0] Us = (4.94654e-05 -0.0979385 4.94654e-05)
[0] Ur = (-7.39935e-06 0.0979312 -7.39935e-06)
[0] dprim = 0.0001
[0] dParcel = 0.0001
[0] rho = 10
[0] nuf = 1e-05
[0] voidfraction = 0.999986
[0] Rep = 0.979299
[0] Cd = 30.0355
[0] dragCoefficient = 1.15513e-07
[0] drag (total) = (-8.54722e-13 1.13124e-08 -8.54722e-13)
DICPCG:  Solving for vSmoothFieldx, Initial residual = 0.0283381, Final residual = 1.14283e-06, No Iterations 2
DICPCG:  Solving for vSmoothFieldy, Initial residual = 0.0283381, Final residual = 1.14283e-06, No Iterations 2
DICPCG:  Solving for vSmoothFieldz, Initial residual = 0.0283381, Final residual = 1.14283e-06, No Iterations 2

Solver level total Eulerian momentum exchange:
[...]
[0] drag (total) = (9.51759e-13 1.53385e-08 9.51759e-13)
DICPCG:  Solving for vSmoothFieldx, Initial residual = 0.0283381, Final residual = 6.81945e-09, No Iterations 2
DICPCG:  Solving for vSmoothFieldy, Initial residual = 0.0283381, Final residual = 6.81945e-09, No Iterations 2
DICPCG:  Solving for vSmoothFieldz, Initial residual = 0.0283381, Final residual = 6.81945e-09, No Iterations 2

Solver level total Eulerian momentum exchange:
  TotalForceImp:  (-6.7904e-12 -1.47461e-08 -6.7904e-12)
  Warning, these values are based on latest Ksl and Us but prev. iteration U!

diagonal:  Solving for rho, Initial residual = 0, Final residual = 0, No Iterations 0
DILUPBiCGStab:  Solving for Ux, Initial residual = 0.0135436, Final residual = 9.53827e-07, No Iterations 1
DILUPBiCGStab:  Solving for Uy, Initial residual = 0.00640199, Final residual = 4.99491e-07, No Iterations 1
DILUPBiCGStab:  Solving for Uz, Initial residual = 0.0135436, Final residual = 9.53827e-07, No Iterations 1
DILUPBiCGStab:  Solving for h, Initial residual = 0.00149085, Final residual = 2.14686e-08, No Iterations 1
DICPCG:  Solving for p, Initial residual = 0.0166585, Final residual = 0.000154602, No Iterations 13
diagonal:  Solving for rho, Initial residual = 0, Final residual = 0, No Iterations 0
time step continuity errors : sum local = 3.0967e-09, global = 1.82345e-10, cumulative = -0.000985931
rho max/min : 10 10
DICPCG:  Solving for p, Initial residual = 0.000160453, Final residual = 5.45634e-07, No Iterations 15
diagonal:  Solving for rho, Initial residual = 0, Final residual = 0, No Iterations 0
time step continuity errors : sum local = 1.09519e-11, global = -3.45792e-14, cumulative = -0.000985931
rho max/min : 10 10
DICPCG:  Solving for p, Initial residual = 8.42689e-07, Final residual = 8.42689e-07, No Iterations 0
diagonal:  Solving for rho, Initial residual = 0, Final residual = 0, No Iterations 0
time step continuity errors : sum local = 1.69153e-11, global = -1.03579e-12, cumulative = -0.000985931
rho max/min : 10 10
DICPCG:  Solving for p, Initial residual = 8.45562e-07, Final residual = 8.45562e-07, No Iterations 0
diagonal:  Solving for rho, Initial residual = 0, Final residual = 0, No Iterations 0
time step continuity errors : sum local = 1.6973e-11, global = -1.0426e-12, cumulative = -0.000985931
rho max/min : 10 10
ExecutionTime = 0.83 s  ClockTime = 1 s

Time = 0.147

Courant Number mean: 2.40381e-05 max: 0.000240649

 Coupling...
Starting up LIGGGHTS
Executing command: 'run 100    '
run 100    
Setting up run at Thu Jun 11 07:22:57 2020

Memory usage per processor = 4.23812 Mbytes
    Step    Atoms         KinEng            rke         Volume 
   14600        1  1.3038668e-11              0          0.001 
CFD Coupling established at step 14700
   14700        1  1.3041206e-11              0          0.001 
Loop time of 0.000218314 on 2 procs for 100 steps with 1 atoms, finish time Thu Jun 11 07:22:57 2020


Pair  time (%) = 2.04685e-05 (9.37572)
Neigh time (%) = 0 (0)
Comm  time (%) = 3.961e-05 (18.1436)
Outpt time (%) = 9.4125e-06 (4.31145)
Other time (%) = 0.000148823 (68.1692)

Nlocal:    0.5 ave 1 max 0 min
Histogram: 1 0 0 0 0 0 0 0 0 1
Nghost:    0.5 ave 1 max 0 min
Histogram: 1 0 0 0 0 0 0 0 0 1
Neighs:    0 ave 0 max 0 min
Histogram: 2 0 0 0 0 0 0 0 0 0

Total # of neighbors = 0
Ave neighs/atom = 0
Neighbor list builds = 0
Dangerous builds = 0
couplingStep = 147
Executing command: 'write_restart ../DEM/post/restart/liggghts.restartCFDEM'
write_restart ../DEM/post/restart/liggghts.restartCFDEM
System init for write_restart ...
LIGGGHTS finished
DICPCG:  Solving for sSmoothField, Initial residual = 0.0283381, Final residual = 6.81946e-09, No Iterations 2
DICPCG:  Solving for vSmoothFieldx, Initial residual = 5.83279e-07, Final residual = 5.83279e-07, No Iterations 0
DICPCG:  Solving for vSmoothFieldy, Initial residual = 5.83279e-07, Final residual = 5.83279e-07, No Iterations 0
DICPCG:  Solving for vSmoothFieldz, Initial residual = 5.83279e-07, Final residual = 5.83279e-07, No Iterations 0

 timeStepFraction() = 1
[0] index = 0
[0] Us = (2.58485e-05 -0.128859 2.58485e-05)
[0] Ur = (8.54275e-06 0.128448 8.54275e-06)
[0] dprim = 0.0001
[0] dParcel = 0.0001
[0] rho = 10
[0] nuf = 1e-05
[0] voidfraction = 0.999986
[0] Rep = 1.28446
[0] Cd = 23.6708
[0] dragCoefficient = 1.19403e-07
[0] drag (total) = (1.02003e-12 1.5337e-08 1.02003e-12)
DICPCG:  Solving for vSmoothFieldx, Initial residual = 0.0283381, Final residual = 6.81945e-09, No Iterations 2
DICPCG:  Solving for vSmoothFieldy, Initial residual = 0.0283381, Final residual = 6.81945e-09, No Iterations 2
DICPCG:  Solving for vSmoothFieldz, Initial residual = 0.0283381, Final residual = 6.81945e-09, No Iterations 2

Solver level total Eulerian momentum exchange:
  TotalForceImp:  (-6.53611e-12 -1.47466e-08 -6.53611e-12)
  Warning, these values are based on latest Ksl and Us but prev. iteration U!

diagonal:  Solving for rho, Initial residual = 0, Final residual = 0, No Iterations 0
DILUPBiCGStab:  Solving for Ux, Initial residual = 0.0130183, Final residual = 9.31125e-07, No Iterations 1
DILUPBiCGStab:  Solving for Uy, Initial residual = 0.00633013, Final residual = 4.9401e-07, No Iterations 1
DILUPBiCGStab:  Solving for Uz, Initial residual = 0.0130183, Final residual = 9.31125e-07, No Iterations 1
DILUPBiCGStab:  Solving for h, Initial residual = 0.00147876, Final residual = 2.12686e-08, No Iterations 1
DICPCG:  Solving for p, Initial residual = 0.0139722, Final residual = 0.000128006, No Iterations 5
diagonal:  Solving for rho, Initial residual = 0, Final residual = 0, No Iterations 0
time step continuity errors : sum local = 2.56805e-09, global = 8.00808e-10, cumulative = -0.00098593
rho max/min : 10 10
DICPCG:  Solving for p, Initial residual = 0.000128253, Final residual = 4.21573e-07, No Iterations 16
diagonal:  Solving for rho, Initial residual = 0, Final residual = 0, No Iterations 0
time step continuity errors : sum local = 8.45418e-12, global = 5.58072e-13, cumulative = -0.00098593
rho max/min : 10 10
DICPCG:  Solving for p, Initial residual = 7.23351e-07, Final residual = 7.23351e-07, No Iterations 0
diagonal:  Solving for rho, Initial residual = 0, Final residual = 0, No Iterations 0
time step continuity errors : sum local = 1.45223e-11, global = -4.63752e-12, cumulative = -0.00098593
rho max/min : 10 10
DICPCG:  Solving for p, Initial residual = 7.26479e-07, Final residual = 7.26479e-07, No Iterations 0
diagonal:  Solving for rho, Initial residual = 0, Final residual = 0, No Iterations 0
time step continuity errors : sum local = 1.45851e-11, global = -4.67354e-12, cumulative = -0.00098593
rho max/min : 10 10
ExecutionTime = 0.83 s  ClockTime = 1 s

Time = 0.148

Courant Number mean: 2.42201e-05 max: 0.000245

 Coupling...
Starting up LIGGGHTS
Executing command: 'run 100    '
run 100    
Setting up run at Thu Jun 11 07:22:57 2020

Memory usage per processor = 4.23812 Mbytes
    Step    Atoms         KinEng            rke         Volume 
   14700        1  1.3041206e-11              0          0.001 
CFD Coupling established at step 14800
   14800        1  1.3043925e-11              0          0.001 
Loop time of 0.000218004 on 2 procs for 100 steps with 1 atoms, finish time Thu Jun 11 07:22:57 2020


Pair  time (%) = 1.994e-05 (9.14662)
Neigh time (%) = 0 (0)
Comm  time (%) = 3.9595e-05 (18.1625)
Outpt time (%) = 9.1445e-06 (4.19465)
Other time (%) = 0.000149325 (68.4962)

Nlocal:    0.5 ave 1 max 0 min
Histogram: 1 0 0 0 0 0 0 0 0 1
Nghost:    0.5 ave 1 max 0 min
Histogram: 1 0 0 0 0 0 0 0 0 1
Neighs:    0 ave 0 max 0 min
Histogram: 2 0 0 0 0 0 0 0 0 0

Total # of neighbors = 0
Ave neighs/atom = 0
Neighbor list builds = 0
Dangerous builds = 0
couplingStep = 148
Executing command: 'write_restart ../DEM/post/restart/liggghts.restartCFDEM'
write_restart ../DEM/post/restart/liggghts.restartCFDEM
System init for write_restart ...
LIGGGHTS finished
DICPCG:  Solving for sSmoothField, Initial residual = 0.0272738, Final residual = 6.12107e-09, No Iterations 2
DICPCG:  Solving for vSmoothFieldx, Initial residual = 5.85131e-07, Final residual = 5.85131e-07, No Iterations 0
DICPCG:  Solving for vSmoothFieldy, Initial residual = 5.85131e-07, Final residual = 5.85131e-07, No Iterations 0
DICPCG:  Solving for vSmoothFieldz, Initial residual = 5.85131e-07, Final residual = 5.85131e-07, No Iterations 0

 timeStepFraction() = 1
[0] index = 0
[0] Us = (2.64978e-05 -0.128872 2.64978e-05)
[0] Ur = (1.61483e-05 0.128898 1.61483e-05)
[0] dprim = 0.0001
[0] dParcel = 0.0001
[0] rho = 10
[0] nuf = 1e-05
[0] voidfraction = 0.999987
[0] Rep = 1.28897
[0] Cd = 23.5988
[0] dragCoefficient = 1.19457e-07
[0] drag (total) = (1.92902e-12 1.53978e-08 1.92902e-12)
DICPCG:  Solving for vSmoothFieldx, Initial residual = 0.0272738, Final residual = 6.12106e-09, No Iterations 2
DICPCG:  Solving for vSmoothFieldy, Initial residual = 0.0272738, Final residual = 6.12106e-09, No Iterations 2
DICPCG:  Solving for vSmoothFieldz, Initial residual = 0.0272738, Final residual = 6.12106e-09, No Iterations 2

Solver level total Eulerian momentum exchange:
  TotalForceImp:  (-7.06648e-12 -1.45202e-08 -7.06648e-12)
  Warning, these values are based on latest Ksl and Us but prev. iteration U!

diagonal:  Solving for rho, Initial residual = 0, Final residual = 0, No Iterations 0
DILUPBiCGStab:  Solving for Ux, Initial residual = 0.0124807, Final residual = 9.08234e-07, No Iterations 1
DILUPBiCGStab:  Solving for Uy, Initial residual = 0.00919597, Final residual = 5.18806e-07, No Iterations 1
DILUPBiCGStab:  Solving for Uz, Initial residual = 0.0124807, Final residual = 9.08234e-07, No Iterations 1
DILUPBiCGStab:  Solving for h, Initial residual = 0.00146684, Final residual = 2.107e-08, No Iterations 1
DICPCG:  Solving for p, Initial residual = 0.700205, Final residual = 0.00632581, No Iterations 10
diagonal:  Solving for rho, Initial residual = 0, Final residual = 0, No Iterations 0
time step continuity errors : sum local = 2.33716e-07, global = 7.41615e-08, cumulative = -0.000985856
rho max/min : 10 10
DICPCG:  Solving for p, Initial residual = 0.00484264, Final residual = 4.27038e-05, No Iterations 14
diagonal:  Solving for rho, Initial residual = 0, Final residual = 0, No Iterations 0
time step continuity errors : sum local = 2.40543e-09, global = -1.8415e-10, cumulative = -0.000985856
rho max/min : 10 10
DICPCG:  Solving for p, Initial residual = 4.38827e-05, Final residual = 2.64539e-07, No Iterations 15
diagonal:  Solving for rho, Initial residual = 0, Final residual = 0, No Iterations 0
time step continuity errors : sum local = 1.54957e-11, global = 8.7579e-13, cumulative = -0.000985856
rho max/min : 10 10
DICPCG:  Solving for p, Initial residual = 3.28563e-07, Final residual = 3.28563e-07, No Iterations 0
diagonal:  Solving for rho, Initial residual = 0, Final residual = 0, No Iterations 0
time step continuity errors : sum local = 1.92397e-11, global = 1.85732e-12, cumulative = -0.000985856
rho max/min : 10 10
ExecutionTime = 0.84 s  ClockTime = 1 s

Time = 0.149

Courant Number mean: 2.40433e-05 max: 0.000223599

 Coupling...
Starting up LIGGGHTS
Executing command: 'run 100    '
run 100    
Setting up run at Thu Jun 11 07:22:57 2020

Memory usage per processor = 4.23812 Mbytes
    Step    Atoms         KinEng            rke         Volume 
   14800        1  1.3043925e-11              0          0.001 
CFD Coupling established at step 14900
   14900        1  1.3038822e-11              0          0.001 
Loop time of 0.00021575 on 2 procs for 100 steps with 1 atoms, finish time Thu Jun 11 07:22:57 2020


Pair  time (%) = 2.086e-05 (9.66862)
Neigh time (%) = 0 (0)
Comm  time (%) = 3.94025e-05 (18.2631)
Outpt time (%) = 7.8385e-06 (3.63315)
Other time (%) = 0.000147648 (68.4352)

Nlocal:    0.5 ave 1 max 0 min
Histogram: 1 0 0 0 0 0 0 0 0 1
Nghost:    0.5 ave 1 max 0 min
Histogram: 1 0 0 0 0 0 0 0 0 1
Neighs:    0 ave 0 max 0 min
Histogram: 2 0 0 0 0 0 0 0 0 0

Total # of neighbors = 0
Ave neighs/atom = 0
Neighbor list builds = 0
Dangerous builds = 0
couplingStep = 149
Executing command: 'write_restart ../DEM/post/restart/liggghts.restartCFDEM'
write_restart ../DEM/post/restart/liggghts.restartCFDEM
System init for write_restart ...
LIGGGHTS finished
DICPCG:  Solving for sSmoothField, Initial residual = 0.0283381, Final residual = 6.51248e-09, No Iterations 2
DICPCG:  Solving for vSmoothFieldx, Initial residual = 5.83279e-07, Final residual = 5.83279e-07, No Iterations 0
DICPCG:  Solving for vSmoothFieldy, Initial residual = 5.83279e-07, Final residual = 5.83279e-07, No Iterations 0
DICPCG:  Solving for vSmoothFieldz, Initial residual = 5.83279e-07, Final residual = 5.83279e-07, No Iterations 0

 timeStepFraction() = 1
[0] index = 0
[0] Us = (2.77259e-05 -0.128847 2.77259e-05)
[0] Ur = (3.53152e-06 0.128836 3.53152e-06)
[0] dprim = 0.0001
[0] dParcel = 0.0001
[0] rho = 10
[0] nuf = 1e-05
[0] voidfraction = 0.999986
[0] Rep = 1.28834
[0] Cd = 23.6088
[0] dragCoefficient = 1.1945e-07
[0] drag (total) = (4.21838e-13 1.53894e-08 4.21838e-13)
DICPCG:  Solving for vSmoothFieldx, Initial residual = 0.0283381, Final residual = 6.51247e-09, No Iterations 2
DICPCG:  Solving for vSmoothFieldy, Initial residual = 0.0283381, Final residual = 6.51247e-09, No Iterations 2
DICPCG:  Solving for vSmoothFieldz, Initial residual = 0.0283381, Final residual = 6.51247e-09, No Iterations 2

Solver level total Eulerian momentum exchange:
  TotalForceImp:  (-2.78995e-11 -1.44474e-08 -2.78995e-11)
  Warning, these values are based on latest Ksl and Us but prev. iteration U!

diagonal:  Solving for rho, Initial residual = 0, Final residual = 0, No Iterations 0
DILUPBiCGStab:  Solving for Ux, Initial residual = 0.0734608, Final residual = 1.43075e-06, No Iterations 1
DILUPBiCGStab:  Solving for Uy, Initial residual = 0.0308777, Final residual = 6.3791e-07, No Iterations 1
DILUPBiCGStab:  Solving for Uz, Initial residual = 0.0734608, Final residual = 1.43075e-06, No Iterations 1
DILUPBiCGStab:  Solving for h, Initial residual = 0.00145509, Final residual = 2.08789e-08, No Iterations 1
DICPCG:  Solving for p, Initial residual = 0.207541, Final residual = 0.00168808, No Iterations 8
diagonal:  Solving for rho, Initial residual = 0, Final residual = 0, No Iterations 0
time step continuity errors : sum local = 8.42622e-08, global = 1.90446e-08, cumulative = -0.000985837
rho max/min : 10 10
DICPCG:  Solving for p, Initial residual = 0.00227511, Final residual = 1.36278e-05, No Iterations 15
diagonal:  Solving for rho, Initial residual = 0, Final residual = 0, No Iterations 0
time step continuity errors : sum local = 5.56257e-10, global = -4.15173e-13, cumulative = -0.000985837
rho max/min : 10 10
DICPCG:  Solving for p, Initial residual = 1.79197e-05, Final residual = 5.62595e-07, No Iterations 14
diagonal:  Solving for rho, Initial residual = 0, Final residual = 0, No Iterations 0
time step continuity errors : sum local = 2.33673e-11, global = 1.98092e-12, cumulative = -0.000985837
rho max/min : 10 10
DICPCG:  Solving for p, Initial residual = 5.63025e-07, Final residual = 5.63025e-07, No Iterations 0
diagonal:  Solving for rho, Initial residual = 0, Final residual = 0, No Iterations 0
time step continuity errors : sum local = 2.3382e-11, global = 1.95565e-12, cumulative = -0.000985837
rho max/min : 10 10
ExecutionTime = 0.84 s  ClockTime = 1 s

Time = 0.15

Courant Number mean: 2.40891e-05 max: 0.000218421

 Coupling...
Starting up LIGGGHTS
Executing command: 'run 100    '
run 100    
Setting up run at Thu Jun 11 07:22:57 2020

Memory usage per processor = 4.23812 Mbytes
    Step    Atoms         KinEng            rke         Volume 
   14900        1  1.3038822e-11              0          0.001 
CFD Coupling established at step 15000
   15000        1  1.3034798e-11              0          0.001 
Loop time of 0.000231409 on 2 procs for 100 steps with 1 atoms, finish time Thu Jun 11 07:22:57 2020


Pair  time (%) = 2.06595e-05 (8.9277)
Neigh time (%) = 0 (0)
Comm  time (%) = 4.03205e-05 (17.4239)
Outpt time (%) = 2.26395e-05 (9.78333)
Other time (%) = 0.000147789 (63.8651)

Nlocal:    0.5 ave 1 max 0 min
Histogram: 1 0 0 0 0 0 0 0 0 1
Nghost:    0.5 ave 1 max 0 min
Histogram: 1 0 0 0 0 0 0 0 0 1
Neighs:    0 ave 0 max 0 min
Histogram: 2 0 0 0 0 0 0 0 0 0

Total # of neighbors = 0
Ave neighs/atom = 0
Neighbor list builds = 0
Dangerous builds = 0
couplingStep = 150
Executing command: 'write_restart ../DEM/post/restart/liggghts.restartCFDEM'
write_restart ../DEM/post/restart/liggghts.restartCFDEM
System init for write_restart ...
LIGGGHTS finished
DICPCG:  Solving for sSmoothField, Initial residual = 0.0283381, Final residual = 6.51248e-09, No Iterations 2
DICPCG:  Solving for vSmoothFieldx, Initial residual = 5.83279e-07, Final residual = 5.83279e-07, No Iterations 0
DICPCG:  Solving for vSmoothFieldy, Initial residual = 5.83279e-07, Final residual = 5.83279e-07, No Iterations 0
DICPCG:  Solving for vSmoothFieldz, Initial residual = 5.83279e-07, Final residual = 5.83279e-07, No Iterations 0

 timeStepFraction() = 1
[0] index = 0
[0] Us = (2.79945e-05 -0.128827 2.79945e-05)
[0] Ur = (-6.93557e-06 0.128788 -6.93557e-06)
[0] dprim = 0.0001
[0] dParcel = 0.0001
[0] rho = 10
[0] nuf = 1e-05
[0] voidfraction = 0.999986
[0] Rep = 1.28786
[0] Cd = 23.6164
[0] dragCoefficient = 1.19444e-07
[0] drag (total) = (-8.28411e-13 1.53829e-08 -8.28411e-13)
DICPCG:  Solving for vSmoothFieldx, Initial residual = 0.0283381, Final residual = 6.51247e-09, No Iterations 2
DICPCG:  Solving for vSmoothFieldy, Initial residual = 0.0283381, Final residual = 6.51247e-09, No Iterations 2
DICPCG:  Solving for vSmoothFieldz, Initial residual = 0.0283381, Final residual = 6.51247e-09, No Iterations 2

Solver level total Eulerian momentum exchange:
  TotalForceImp:  (-4.34982e-11 -1.45316e-08 -4.34982e-11)
  Warning, these values are based on latest Ksl and Us but prev. iteration U!

diagonal:  Solving for rho, Initial residual = 0, Final residual = 0, No Iterations 0
DILUPBiCGStab:  Solving for Ux, Initial residual = 0.0484552, Final residual = 1.19631e-06, No Iterations 1
DILUPBiCGStab:  Solving for Uy, Initial residual = 0.0190406, Final residual = 5.51452e-07, No Iterations 1
DILUPBiCGStab:  Solving for Uz, Initial residual = 0.0484552, Final residual = 1.19631e-06, No Iterations 1
DILUPBiCGStab:  Solving for h, Initial residual = 0.00144353, Final residual = 2.06885e-08, No Iterations 1
DICPCG:  Solving for p, Initial residual = 0.235723, Final residual = 0.000838026, No Iterations 15
diagonal:  Solving for rho, Initial residual = 0, Final residual = 0, No Iterations 0
time step continuity errors : sum local = 2.91371e-08, global = 1.67878e-09, cumulative = -0.000985836
rho max/min : 10 10
DICPCG:  Solving for p, Initial residual = 0.0020329, Final residual = 1.88127e-05, No Iterations 15
diagonal:  Solving for rho, Initial residual = 0, Final residual = 0, No Iterations 0
time step continuity errors : sum local = 4.14545e-10, global = 2.92584e-11, cumulative = -0.000985836
rho max/min : 10 10
DICPCG:  Solving for p, Initial residual = 2.12088e-05, Final residual = 7.27124e-07, No Iterations 3
diagonal:  Solving for rho, Initial residual = 0, Final residual = 0, No Iterations 0
time step continuity errors : sum local = 1.60517e-11, global = 3.35781e-12, cumulative = -0.000985836
rho max/min : 10 10
DICPCG:  Solving for p, Initial residual = 7.41493e-07, Final residual = 7.41493e-07, No Iterations 0
diagonal:  Solving for rho, Initial residual = 0, Final residual = 0, No Iterations 0
time step continuity errors : sum local = 1.63689e-11, global = 3.2433e-12, cumulative = -0.000985836
rho max/min : 10 10
ExecutionTime = 0.85 s  ClockTime = 1 s

End

Finalising parallel run
[langmuir:06083] 1 more process has sent help message help-mpi-btl-base.txt / btl:no-nics
[langmuir:06083] Set MCA parameter "orte_base_help_aggregate" to 0 to see all help / error messages
